data/VERIFIED cases/activsg500_cleaned.m
% Case saved by PowerWorld Simulator, version 23, build date October 31, 2023
% Case Information Header = 4 lines
% This is a synthetic power system model that does NOT represent the actual grid. It was developed as part of the US ARPA-E Grid
% Data research project and contains no CEII.
% Reference: A.B. Birchfield, T. Xu, K.M. Gegner, K.S. Shetye, and T.J. Overbye, "Grid Structural Characteristics as Validation
% Criteria for Synthetic Networks," to appear, IEEE Transactions on Power Systems, 2017.
function mpc = activsg500
mpc.version = '2';
mpc.baseMVA = 100.00;

%% bus data
mpc.bus = [
1 1 0.00 0.00 0.00 0.00 1 1.0229974 -44.807911 138.00 6 1.100 0.900 20.08 -0.07 0 0
2 1 30.20 8.05 0.00 0.00 1 1.0225929 -44.857499 138.00 6 1.100 0.900 20.08 -0.07 0 0
3 1 0.00 0.00 0.00 0.00 1 1.0204094 -46.507703 138.00 6 1.100 0.900 20.07 -0.03 0 0
4 1 93.62 24.97 0.00 0.00 1 1.0189068 -46.679700 138.00 6 1.100 0.900 20.08 -0.03 0 0
5 1 0.00 0.00 0.00 0.00 1 1.0331165 -25.811601 138.00 4 1.100 0.900 10.44 1.29 0 0
6 1 2.18 0.58 0.00 0.00 1 1.0330846 -25.815603 138.00 4 1.100 0.900 10.44 1.29 0 0
7 1 0.00 0.00 0.00 0.00 1 1.0375757 -41.958777 345.00 6 1.100 0.900 20.07 -0.03 0 0
8 1 0.00 0.00 0.00 0.00 1 1.0341446 -42.999134 138.00 6 1.100 0.900 20.07 -0.04 0 0
9 2 0.00 0.00 0.00 0.00 1 1.0400000 -41.122689 13.80 6 1.100 0.900 20.07 0.00 0 0
10 1 0.00 0.00 0.00 0.00 1 1.0345193 -44.349202 138.00 5 1.100 0.900 19.65 -0.01 0 0
11 1 1.72 0.46 0.00 0.00 1 1.0344943 -44.351983 138.00 5 1.100 0.900 19.65 -0.01 0 0
12 1 0.00 0.00 0.00 0.00 1 1.0409447 -40.487237 138.00 2 1.100 0.900 19.36 0.01 0 0
13 1 21.03 5.61 0.00 0.00 1 1.0406496 -40.520254 138.00 2 1.100 0.900 19.36 0.01 0 0
14 1 0.00 0.00 0.00 0.00 1 1.0401878 -31.695487 345.00 1 1.100 0.900 19.27 0.01 0 0
15 1 0.00 0.00 0.00 0.00 1 1.0398550 -33.749045 138.00 1 1.100 0.900 19.27 0.02 0 0
16 2 0.00 0.00 0.00 0.00 1 1.0400000 -28.864401 13.80 1 1.100 0.900 19.27 0.00 0 0
17 3 0.00 0.00 0.00 0.00 1 1.0400000 -28.308834 13.80 1 1.100 0.900 19.27 0.00 0 0
18 2 0.00 0.00 0.00 0.00 1 1.0400000 -27.422852 13.80 1 1.100 0.900 19.27 0.00 0 0
19 1 0.00 0.00 0.00 0.00 1 1.0367707 -44.961086 138.00 5 1.100 0.900 19.82 -0.04 0 0
20 1 3.15 0.84 0.00 0.00 1 1.0367227 -44.967376 138.00 5 1.100 0.900 19.82 -0.04 0 0
21 1 0.00 0.00 0.00 0.00 1 1.0249272 -43.817534 138.00 6 1.100 0.900 20.00 -0.09 0 0
22 1 104.92 27.98 0.00 0.00 1 1.0234529 -43.990450 138.00 6 1.100 0.900 20.00 -0.09 0 0
23 1 0.00 0.00 0.00 0.00 1 1.0401397 -36.887564 345.00 3 1.100 0.900 19.11 0.12 0 0
24 1 0.00 0.00 0.00 0.00 1 1.0348797 -38.416158 138.00 3 1.100 0.900 19.13 0.11 0 0
25 1 1.30 0.35 0.00 0.00 1 1.0348598 -38.418573 138.00 3 1.100 0.900 19.13 0.11 0 0
26 1 12.36 3.30 0.00 0.00 1 1.0346936 -38.439834 138.00 3 1.100 0.900 19.13 0.12 0 0
27 1 0.00 0.00 0.00 50.00 1 1.0709799 -41.850328 138.00 3 1.100 0.900 19.52 -0.10 0 0
28 1 35.91 9.58 0.00 0.00 1 1.0703942 -41.918174 138.00 3 1.100 0.900 19.52 -0.10 0 0
29 1 0.00 0.00 0.00 0.00 1 1.0220939 -46.192117 138.00 6 1.100 0.900 20.05 -0.05 0 0
30 1 70.54 18.81 0.00 0.00 1 1.0210582 -46.313487 138.00 6 1.100 0.900 20.05 -0.05 0 0
31 1 0.00 0.00 0.00 100.00 1 1.0587314 -46.497902 138.00 5 1.100 0.900 19.69 -0.01 0 0
32 1 6.78 1.81 0.00 0.00 1 1.0586328 -46.509209 138.00 5 1.100 0.900 19.69 -0.01 0 0
33 1 0.00 0.00 0.00 0.00 1 1.0269916 -45.565217 138.00 5 1.100 0.900 19.80 -0.04 0 0
34 1 17.36 4.63 0.00 0.00 1 1.0267379 -45.594615 138.00 5 1.100 0.900 19.80 -0.04 0 0
35 1 0.00 0.00 0.00 0.00 1 1.0408919 -45.580791 138.00 5 1.100 0.900 19.65 -0.00 0 0
36 1 30.10 8.03 0.00 0.00 1 1.0404892 -45.626562 138.00 5 1.100 0.900 19.65 -0.00 0 0
37 1 0.00 0.00 0.00 0.00 1 1.0232002 -30.818475 138.00 4 1.100 0.900 -1.80 2.99 0 0
38 1 0.09 0.02 0.00 0.00 1 1.0231988 -30.818652 138.00 4 1.100 0.900 -1.80 2.99 0 0
39 1 0.00 0.00 0.00 0.00 1 1.0404728 -37.023307 345.00 3 1.100 0.900 19.01 0.16 0 0
40 1 0.00 0.00 0.00 0.00 1 1.0374346 -37.680854 138.00 3 1.100 0.900 19.03 0.16 0 0
41 1 33.09 8.82 0.00 0.00 1 1.0368986 -37.747029 138.00 3 1.100 0.900 19.03 0.16 0 0
42 1 0.00 0.00 0.00 0.00 1 1.0446662 -43.809976 138.00 5 1.100 0.900 19.61 0.00 0 0
43 1 3.10 0.83 0.00 0.00 1 1.0446255 -43.814813 138.00 5 1.100 0.900 19.61 0.00 0 0
44 1 0.00 0.00 0.00 0.00 1 1.0275431 -43.214227 138.00 6 1.100 0.900 20.08 -0.09 0 0
45 1 1.43 0.38 0.00 0.00 1 1.0275198 -43.217109 138.00 6 1.100 0.900 20.08 -0.09 0 0
46 1 0.00 0.00 0.00 0.00 1 1.0237384 -39.831552 138.00 3 1.100 0.900 19.09 0.13 0 0
47 1 24.77 6.61 0.00 0.00 1 1.0233693 -39.876173 138.00 3 1.100 0.900 19.09 0.13 0 0
48 1 0.00 0.00 0.00 0.00 1 1.0504520 -43.101813 138.00 5 1.100 0.900 19.40 0.02 0 0
49 2 0.00 0.00 0.00 0.00 1 1.0501904 -42.912657 13.80 5 1.100 0.900 19.40 0.02 0 0
50 2 0.00 0.00 0.00 0.00 1 1.0501271 -42.879755 13.80 5 1.100 0.900 19.40 0.02 0 0
51 1 0.25 0.07 0.00 0.00 1 1.0504482 -43.102259 138.00 5 1.100 0.900 19.40 0.02 0 0
52 1 16.24 4.33 0.00 0.00 1 1.0502182 -43.128606 138.00 5 1.100 0.900 19.40 0.02 0 0
53 1 0.00 0.00 0.00 0.00 1 1.0255239 -45.355452 138.00 6 1.100 0.900 20.06 -0.06 0 0
54 1 24.56 6.55 0.00 0.00 1 1.0251651 -45.393999 138.00 6 1.100 0.900 20.06 -0.06 0 0
55 1 0.00 0.00 0.00 0.00 1 1.0456201 -42.313633 138.00 5 1.100 0.900 19.52 0.01 0 0
56 1 1.56 0.42 0.00 0.00 1 1.0455973 -42.316207 138.00 5 1.100 0.900 19.52 0.01 0 0
57 1 0.00 0.00 0.00 0.00 1 1.0438108 -37.520575 345.00 2 1.100 0.900 19.33 0.01 0 0
58 1 0.00 0.00 0.00 0.00 1 1.0457471 -39.070510 138.00 2 1.100 0.900 19.34 0.01 0 0
59 1 79.77 21.27 0.00 0.00 1 1.0444857 -39.224617 138.00 2 1.100 0.900 19.34 0.01 0 0
60 1 0.00 0.00 0.00 0.00 1 1.0359216 -37.973043 138.00 3 1.100 0.900 19.03 0.15 0 0
61 1 0.12 0.03 0.00 0.00 1 1.0359200 -37.973253 138.00 3 1.100 0.900 19.03 0.15 0 0
62 1 0.00 0.00 0.00 0.00 1 1.0231915 -45.753185 138.00 6 1.100 0.900 20.07 -0.03 0 0
63 2 0.00 0.00 0.00 0.00 1 1.0231915 -45.753185 13.80 6 1.100 0.900 20.07 -0.03 0 0
64 1 24.54 6.54 0.00 0.00 1 1.0228232 -45.794796 138.00 6 1.100 0.900 20.07 -0.03 0 0
65 1 0.00 0.00 0.00 0.00 1 1.0459814 -40.520234 345.00 5 1.100 0.900 19.50 0.01 0 0
66 1 0.00 0.00 0.00 0.00 1 1.0463774 -41.615222 138.00 5 1.100 0.900 19.51 0.01 0 0
67 1 3.17 0.85 0.00 0.00 1 1.0463302 -41.620504 138.00 5 1.100 0.900 19.51 0.01 0 0
68 1 0.00 0.00 0.00 0.00 1 1.0542149 -40.476787 138.00 3 1.100 0.900 19.60 -0.15 0 0
69 1 9.68 2.58 0.00 0.00 1 1.0540555 -40.495852 138.00 3 1.100 0.900 19.60 -0.15 0 0
70 1 0.00 0.00 0.00 0.00 1 1.0394184 -41.374280 138.00 2 1.100 0.900 19.42 0.00 0 0
71 2 0.00 0.00 0.00 0.00 1 1.0400000 -41.345618 13.80 2 1.100 0.900 19.42 0.00 0 0
72 2 0.00 0.00 0.00 0.00 1 1.0400000 -41.326067 13.80 2 1.100 0.900 19.42 0.00 0 0
73 2 0.00 0.00 0.00 0.00 1 1.0400000 -41.307727 13.80 2 1.100 0.900 19.42 0.00 0 0
74 1 0.00 0.00 0.00 0.00 1 1.0504800 -46.469288 138.00 6 1.100 0.900 19.72 -0.02 0 0
75 1 3.74 1.00 0.00 0.00 1 1.0504275 -46.475470 138.00 6 1.100 0.900 19.72 -0.02 0 0
76 1 0.00 0.00 0.00 0.00 1 1.0219345 -29.474811 138.00 4 1.100 0.900 -0.60 2.16 0 0
77 1 4.72 1.26 0.00 0.00 1 1.0218616 -29.482915 138.00 4 1.100 0.900 -0.60 2.16 0 0
78 1 0.00 0.00 0.00 0.00 1 1.0394390 -35.697450 138.00 1 1.100 0.900 19.29 0.02 0 0
79 1 0.25 0.07 0.00 0.00 1 1.0394354 -35.697866 138.00 1 1.100 0.900 19.29 0.02 0 0
80 1 0.00 0.00 0.00 0.00 1 1.0448169 -41.530024 345.00 5 1.100 0.900 19.57 0.00 0 0
81 1 0.00 0.00 0.00 0.00 1 1.0452387 -43.160743 138.00 5 1.100 0.900 19.59 0.00 0 0
82 2 0.00 0.00 0.00 0.00 1 1.0400000 -39.690515 13.80 5 1.100 0.900 19.57 0.00 0 0
83 1 0.00 0.00 0.00 0.00 1 1.0260812 -45.709109 138.00 5 1.100 0.900 19.73 -0.02 0 0
84 1 42.63 11.37 0.00 0.00 1 1.0254098 -45.790025 138.00 5 1.100 0.900 19.73 -0.02 0 0
85 1 0.00 0.00 0.00 0.00 1 1.0490384 -45.807717 138.00 5 1.100 0.900 19.72 -0.02 0 0
86 1 12.21 3.26 0.00 0.00 1 1.0488412 -45.831423 138.00 5 1.100 0.900 19.72 -0.02 0 0
87 1 0.00 0.00 0.00 0.00 1 1.0209984 -25.575150 138.00 4 1.100 0.900 8.25 0.31 0 0
88 1 3.57 0.95 0.00 0.00 1 1.0209433 -25.581826 138.00 4 1.100 0.900 8.25 0.31 0 0
89 1 0.00 0.00 0.00 0.00 1 1.0294116 -44.227346 138.00 6 1.100 0.900 20.06 -0.04 0 0
90 1 4.16 1.11 0.00 0.00 1 1.0293475 -44.235713 138.00 6 1.100 0.900 20.06 -0.04 0 0
91 1 0.00 0.00 0.00 0.00 1 1.0341993 -34.812263 138.00 1 1.100 0.900 19.27 0.02 0 0
92 1 42.97 11.46 0.00 0.00 1 1.0335596 -34.892067 138.00 1 1.100 0.900 19.27 0.02 0 0
93 1 0.00 0.00 0.00 0.00 1 1.0253177 -37.026009 138.00 6 1.100 0.900 21.63 -2.35 0 0
94 1 3.68 0.98 0.00 0.00 1 1.0252671 -37.032302 138.00 6 1.100 0.900 21.63 -2.35 0 0
95 1 0.00 0.00 0.00 0.00 1 1.0345175 -34.962344 138.00 1 1.100 0.900 19.27 0.01 0 0
96 1 22.47 5.99 0.00 0.00 1 1.0342065 -34.999681 138.00 1 1.100 0.900 19.27 0.01 0 0
97 1 0.00 0.00 0.00 0.00 1 1.0594433 -42.709610 138.00 1 1.100 0.900 19.36 0.02 0 0
98 1 24.51 6.54 0.00 0.00 1 1.0590653 -42.757601 138.00 1 1.100 0.900 19.36 0.02 0 0
99 1 0.00 0.00 0.00 0.00 1 1.0398923 -37.843916 138.00 3 1.100 0.900 19.19 0.12 0 0
100 1 7.72 2.06 0.00 0.00 1 1.0397728 -37.858016 138.00 3 1.100 0.900 19.19 0.12 0 0
101 1 0.51 0.14 0.00 0.00 1 1.0398846 -37.844753 138.00 3 1.100 0.900 19.19 0.12 0 0
102 1 0.00 0.00 0.00 0.00 1 1.0447596 -43.399411 138.00 5 1.100 0.900 19.46 0.01 0 0
103 1 26.94 7.18 0.00 0.00 1 1.0443343 -43.451900 138.00 5 1.100 0.900 19.46 0.01 0 0
104 1 0.00 0.00 0.00 0.00 1 1.0459898 -46.669185 138.00 5 1.100 0.900 19.67 -0.01 0 0
105 1 55.78 14.87 0.00 0.00 1 1.0450953 -46.773596 138.00 5 1.100 0.900 19.67 -0.01 0 0
106 1 0.00 0.00 0.00 0.00 1 1.0406380 -44.988573 138.00 5 1.100 0.900 19.71 -0.02 0 0
107 1 11.11 2.96 0.00 0.00 1 1.0404852 -45.006526 138.00 5 1.100 0.900 19.71 -0.02 0 0
108 1 0.00 0.00 0.00 0.00 1 1.0349642 -38.308951 138.00 3 1.100 0.900 19.13 0.14 0 0
109 1 27.15 7.24 0.00 0.00 1 1.0345806 -38.350131 138.00 3 1.100 0.900 19.13 0.14 0 0
110 1 0.00 0.00 0.00 50.00 1 1.0430069 -27.149413 138.00 3 1.100 0.900 11.00 1.44 0 0
111 1 35.55 9.48 0.00 0.00 1 1.0424894 -27.216240 138.00 3 1.100 0.900 11.00 1.44 0 0
112 1 0.00 0.00 0.00 0.00 1 1.0312404 -44.747183 138.00 5 1.100 0.900 19.88 -0.05 0 0
113 1 31.93 8.51 0.00 0.00 1 1.0307827 -44.797912 138.00 5 1.100 0.900 19.88 -0.05 0 0
114 1 0.00 0.00 0.00 0.00 1 1.0438709 -45.857850 138.00 5 1.100 0.900 19.66 -0.01 0 0
115 1 3.51 0.94 0.00 0.00 1 1.0438237 -45.863810 138.00 5 1.100 0.900 19.66 -0.01 0 0
116 1 2.15 0.57 0.00 0.00 1 1.0438418 -45.861557 138.00 5 1.100 0.900 19.66 -0.01 0 0
117 1 0.00 0.00 0.00 0.00 1 1.0416120 -41.353108 138.00 5 1.100 0.900 19.46 -0.01 0 0
118 1 6.13 1.64 0.00 0.00 1 1.0415142 -41.365032 138.00 5 1.100 0.900 19.46 -0.01 0 0
119 1 0.00 0.00 0.00 0.00 1 1.0427964 -40.694572 138.00 2 1.100 0.900 19.31 0.03 0 0
120 1 17.91 4.78 0.00 0.00 1 1.0425606 -40.722051 138.00 2 1.100 0.900 19.31 0.03 0 0
121 1 0.00 0.00 0.00 0.00 1 1.0236125 -46.037494 138.00 6 1.100 0.900 20.06 -0.05 0 0
122 1 37.65 10.04 0.00 0.00 1 1.0230299 -46.113685 138.00 6 1.100 0.900 20.06 -0.05 0 0
123 1 0.00 0.00 0.00 0.00 1 1.0418083 -34.150155 345.00 1 1.100 0.900 19.28 0.01 0 0
124 1 0.00 0.00 0.00 0.00 1 1.0413173 -34.344738 138.00 1 1.100 0.900 19.28 0.01 0 0
125 2 0.00 0.00 0.00 0.00 1 1.0418083 -34.150155 13.80 1 1.100 0.900 19.28 0.01 0 0
126 2 0.00 0.00 0.00 0.00 1 1.0418083 -34.150155 13.80 1 1.100 0.900 19.28 0.01 0 0
127 2 0.00 0.00 0.00 0.00 1 1.0400000 -32.880781 13.80 1 1.100 0.900 19.28 0.00 0 0
128 2 0.00 0.00 0.00 0.00 1 1.0406483 -33.730169 13.80 1 1.100 0.900 19.28 0.01 0 0
129 1 0.00 0.00 0.00 60.00 1 1.0472732 -41.036987 138.00 2 1.100 0.900 19.33 0.02 0 0
130 1 58.43 15.58 0.00 0.00 1 1.0464023 -41.129705 138.00 2 1.100 0.900 19.33 0.02 0 0
131 1 0.00 0.00 0.00 0.00 1 1.0363596 -37.906584 138.00 3 1.100 0.900 19.04 0.16 0 0
132 1 14.38 3.84 0.00 0.00 1 1.0361322 -37.932949 138.00 3 1.100 0.900 19.04 0.16 0 0
133 1 0.00 0.00 0.00 0.00 1 1.0351730 -34.847236 138.00 1 1.100 0.900 19.27 0.02 0 0
134 1 28.18 7.51 0.00 0.00 1 1.0348086 -34.891628 138.00 1 1.100 0.900 19.27 0.02 0 0
135 1 0.00 0.00 0.00 0.00 1 1.0275724 -44.619046 138.00 6 1.100 0.900 20.07 -0.04 0 0
136 1 18.88 5.03 0.00 0.00 1 1.0272920 -44.655054 138.00 6 1.100 0.900 20.07 -0.04 0 0
137 1 0.00 0.00 0.00 0.00 1 1.0386071 -42.139690 138.00 5 1.100 0.900 19.51 -0.01 0 0
138 1 54.64 14.57 0.00 0.00 1 1.0377809 -42.245419 138.00 5 1.100 0.900 19.51 -0.01 0 0
139 1 0.00 0.00 0.00 0.00 1 1.0347304 -38.220625 138.00 3 1.100 0.900 19.04 0.13 0 0
140 1 0.15 0.04 0.00 0.00 1 1.0347284 -38.220860 138.00 3 1.100 0.900 19.04 0.13 0 0
141 1 0.00 0.00 0.00 50.00 1 1.0233158 -28.821825 138.00 4 1.100 0.900 20.53 -1.78 0 0
142 1 109.64 29.24 0.00 0.00 1 1.0215952 -29.016126 138.00 4 1.100 0.900 20.52 -1.79 0 0
143 1 0.00 0.00 0.00 0.00 1 1.0306342 -20.264916 138.00 4 1.100 0.900 8.29 0.32 0 0
144 2 0.00 0.00 0.00 0.00 1 1.0400000 -14.962482 13.80 4 1.100 0.900 8.32 0.00 0 0
145 2 0.00 0.00 0.00 0.00 1 1.0400000 -15.896713 13.80 4 1.100 0.900 8.32 0.00 0 0
146 1 0.00 0.00 0.00 0.00 1 1.0352835 -40.768323 345.00 6 1.100 0.900 20.10 -0.14 0 0
147 1 0.00 0.00 0.00 0.00 1 1.0257240 -40.274025 138.00 6 1.100 0.900 20.64 -0.91 0 0
148 1 40.51 10.80 0.00 0.00 1 1.0250740 -40.357411 138.00 6 1.100 0.900 20.64 -0.91 0 0
149 1 0.00 0.00 0.00 0.00 1 1.0444205 -43.610354 138.00 5 1.100 0.900 19.59 0.00 0 0
150 1 1.04 0.28 0.00 0.00 1 1.0444038 -43.612279 138.00 5 1.100 0.900 19.59 0.00 0 0
151 1 0.00 0.00 0.00 0.00 1 1.0394838 -37.013955 345.00 3 1.100 0.900 19.07 0.13 0 0
152 1 0.00 0.00 0.00 0.00 1 1.0328135 -38.333094 138.00 3 1.100 0.900 19.08 0.13 0 0
153 1 53.16 14.18 0.00 0.00 1 1.0321122 -38.417990 138.00 3 1.100 0.900 19.08 0.13 0 0
154 1 0.00 0.00 0.00 0.00 1 1.0310756 -38.706663 138.00 3 1.100 0.900 19.04 0.14 0 0
155 1 38.14 10.17 0.00 0.00 1 1.0305813 -38.765550 138.00 3 1.100 0.900 19.04 0.14 0 0
156 1 0.00 0.00 0.00 0.00 1 1.0194474 -40.574335 138.00 2 1.100 0.900 19.09 0.13 0 0
157 1 59.68 15.92 0.00 0.00 1 1.0185361 -40.686955 138.00 2 1.100 0.900 19.10 0.13 0 0
158 1 0.00 0.00 0.00 0.00 1 1.0232351 -45.540834 138.00 6 1.100 0.900 20.06 -0.06 0 0
159 1 16.12 4.30 0.00 0.00 1 1.0229775 -45.573602 138.00 6 1.100 0.900 20.06 -0.06 0 0
160 1 0.00 0.00 0.00 0.00 1 1.0394867 -45.068305 138.00 5 1.100 0.900 19.64 -0.00 0 0
161 1 18.02 4.81 0.00 0.00 1 1.0392253 -45.100987 138.00 5 1.100 0.900 19.64 -0.00 0 0
162 1 0.00 0.00 0.00 0.00 1 1.0354424 -40.806915 345.00 6 1.100 0.900 20.09 -0.12 0 0
163 1 0.00 0.00 0.00 0.00 1 1.0328680 -41.525532 138.00 6 1.100 0.900 20.08 -0.12 0 0
164 1 69.25 18.47 0.00 0.00 1 1.0317148 -41.667548 138.00 6 1.100 0.900 20.08 -0.12 0 0
165 1 0.00 0.00 0.00 0.00 1 1.0413530 -33.838705 345.00 1 1.100 0.900 19.28 0.01 0 0
166 1 0.00 0.00 0.00 0.00 1 1.0412419 -34.711348 138.00 1 1.100 0.900 19.27 0.02 0 0
167 2 0.00 0.00 0.00 0.00 1 1.0400000 -33.154550 13.80 1 1.100 0.900 19.28 0.00 0 0
168 2 0.00 0.00 0.00 0.00 1 1.0400000 -32.715401 13.80 1 1.100 0.900 19.28 0.00 0 0
169 2 0.00 0.00 0.00 0.00 1 1.0400000 -32.219160 13.80 1 1.100 0.900 19.28 0.00 0 0
170 1 0.00 0.00 0.00 0.00 1 1.0343721 -35.035552 138.00 1 1.100 0.900 19.27 0.01 0 0
171 1 8.18 2.18 0.00 0.00 1 1.0342519 -35.051482 138.00 1 1.100 0.900 19.27 0.01 0 0
172 1 0.00 0.00 0.00 0.00 1 1.0367506 -41.051224 138.00 5 1.100 0.900 19.64 -0.14 0 0
173 1 2.18 0.58 0.00 0.00 1 1.0367189 -41.054651 138.00 5 1.100 0.900 19.64 -0.14 0 0
174 1 5.07 1.35 0.00 0.00 1 1.0366823 -41.059018 138.00 5 1.100 0.900 19.64 -0.14 0 0
175 1 0.00 0.00 0.00 0.00 1 1.0385378 -35.955850 345.00 4 1.100 0.900 21.04 -1.47 0 0
176 1 0.00 0.00 0.00 0.00 1 1.0273748 -33.571813 138.00 4 1.100 0.900 23.98 -4.24 0 0
177 1 5.97 1.59 0.00 0.00 1 1.0272859 -33.583152 138.00 4 1.100 0.900 23.98 -4.24 0 0
178 1 4.63 1.23 0.00 0.00 1 1.0273060 -33.579285 138.00 4 1.100 0.900 23.98 -4.24 0 0
179 1 0.00 0.00 0.00 0.00 1 1.0197687 -46.475305 138.00 6 1.100 0.900 20.06 -0.05 0 0
180 1 9.97 2.66 0.00 0.00 1 1.0196147 -46.492437 138.00 6 1.100 0.900 20.06 -0.05 0 0
181 1 0.00 0.00 0.00 60.00 1 1.0665157 -42.424022 138.00 1 1.100 0.900 19.35 0.02 0 0
182 1 54.59 14.56 0.00 0.00 1 1.0656834 -42.521637 138.00 1 1.100 0.900 19.35 0.02 0 0
183 1 0.00 0.00 0.00 0.00 1 1.0278989 -27.255471 138.00 4 1.100 0.900 11.62 1.51 0 0
184 1 20.51 5.47 0.00 0.00 1 1.0276305 -27.287324 138.00 4 1.100 0.900 11.62 1.51 0 0
185 1 0.00 0.00 0.00 0.00 1 1.0385756 -35.859303 138.00 1 1.100 0.900 19.27 0.02 0 0
186 1 29.97 7.99 0.00 0.00 1 1.0381771 -35.905733 138.00 1 1.100 0.900 19.27 0.02 0 0
187 1 0.00 0.00 0.00 0.00 1 1.0289298 -44.430200 138.00 6 1.100 0.900 20.06 -0.04 0 0
188 1 7.80 2.08 0.00 0.00 1 1.0288155 -44.442716 138.00 6 1.100 0.900 20.06 -0.04 0 0
189 1 0.00 0.00 0.00 0.00 1 1.0541438 -46.619656 138.00 5 1.100 0.900 19.70 -0.02 0 0
190 1 9.77 2.61 0.00 0.00 1 1.0540054 -46.633893 138.00 5 1.100 0.900 19.70 -0.02 0 0
191 1 0.00 0.00 0.00 0.00 1 1.0435241 -45.466578 138.00 5 1.100 0.900 19.66 -0.01 0 0
192 1 11.41 3.04 0.00 0.00 1 1.0433394 -45.488090 138.00 5 1.100 0.900 19.66 -0.01 0 0
193 1 0.00 0.00 0.00 0.00 1 1.0335901 -44.993325 138.00 5 1.100 0.900 19.84 -0.05 0 0
194 1 19.92 5.31 0.00 0.00 1 1.0332602 -45.031981 138.00 5 1.100 0.900 19.84 -0.04 0 0
195 1 0.00 0.00 0.00 0.00 1 1.0354592 -40.766296 345.00 6 1.100 0.900 20.09 -0.11 0 0
196 1 0.00 0.00 0.00 0.00 1 1.0303778 -42.310491 138.00 6 1.100 0.900 20.05 -0.10 0 0
197 2 0.00 0.00 0.00 0.00 1 1.0400000 -36.398423 13.80 6 1.100 0.900 20.09 0.00 0 0
198 2 0.00 0.00 0.00 0.00 1 1.0400000 -38.360225 13.80 6 1.100 0.900 20.09 0.00 0 0
199 1 60.96 16.26 0.00 0.00 1 1.0294426 -42.413468 138.00 6 1.100 0.900 20.05 -0.10 0 0
200 1 0.00 0.00 0.00 0.00 1 1.0293596 -42.589661 138.00 6 1.100 0.900 20.08 -0.10 0 0
...
];

%% generator data
mpc.gen = [
9 231.54 36.67 359.66 -94.16 1.0400 926.16 1 771.80 231.54 0.00 0.00 0.00 0.00 0.00 0.00 0 0 0 0 511.0000 0 0 0 0
16 444.45 -2.69 163.56 -36.44 1.0400 533.34 1 444.45 133.33 0.00 0.00 0.00 0.00 0.00 0.00 0 0 0 0 444.4500 0 0 0 0
17 888.90 3.99 327.12 -72.89 1.0400 1066.68 1 888.90 266.67 0.00 0.00 0.00 0.00 0.00 0.00 0 0 0 0 888.8400 0 0 0 0
18 157.60 1.13 58.00 -12.92 1.0400 189.12 1 157.60 47.28 0.00 0.00 0.00 0.00 0.00 0.00 0 0 0 0 157.6000 0 0 0 0
49 1.30 -0.16 0.61 -0.16 1.0400 1.56 1 1.30 0.39 0.00 0.00 0.00 0.00 0.00 0.00 0 0 0 0 1.3000 0 0 0 0
50 2.60 -0.32 1.21 -0.32 1.0400 3.12 1 2.60 0.78 0.00 0.00 0.00 0.00 0.00 0.00 0 0 0 0 2.6000 0 0 0 0
63 0.00 0.00 1.63 -0.36 1.0400 3.84 0 3.20 0.96 0.00 0.00 0.00 0.00 0.00 0.00 0 0 0 0 0.0000 0 0 0 0
71 1.24 1.32 1.54 -0.20 1.0400 4.80 1 1.24 1.24 0.00 0.00 0.00 0.00 0.00 0.00 0 0 0 0 4.0000 0 0 0 0
72 0.64 0.41 0.77 -0.10 1.0400 2.40 1 0.64 0.64 0.00 0.00 0.00 0.00 0.00 0.00 0 0 0 0 2.0000 0 0 0 0
73 0.47 0.20 0.54 -0.07 1.0400 1.68 1 0.47 0.47 0.00 0.00 0.00 0.00 0.00 0.00 0 0 0 0 1.4000 0 0 0 0
82 111.83 -15.84 138.97 -17.73 1.0400 434.28 1 111.83 111.83 0.00 0.00 0.00 0.00 0.00 0.00 0 0 0 0 361.9000 0 0 0 0
125 0.00 0.00 62.21 -7.94 1.0400 194.40 0 23.29 0.00 0.00 0.00 0.00 0.00 0.00 0.00 0 0 0 0 0.0000 0 0 0 0
126 0.00 0.00 62.21 -7.94 1.0400 194.40 0 23.29 0.00 0.00 0.00 0.00 0.00 0.00 0.00 0 0 0 0 0.0000 0 0 0 0
127 50.06 -3.77 62.21 -7.94 1.0400 194.40 1 50.06 50.06 0.00 0.00 0.00 0.00 0.00 0.00 0 0 0 0 162.0000 0 0 0 0
128 50.06 -7.94 62.21 -7.94 1.0400 194.40 1 50.06 50.06 0.00 0.00 0.00 0.00 0.00 0.00 0 0 0 0 162.0000 0 0 0 0
144 602.55 66.75 221.74 -49.41 1.0400 723.06 1 602.55 180.76 0.00 0.00 0.00 0.00 0.00 0.00 0 0 0 0 602.5500 0 0 0 0
145 486.59 59.10 221.74 -49.41 1.0400 723.06 1 602.55 180.76 0.00 0.00 0.00 0.00 0.00 0.00 0 0 0 0 602.5500 0 0 0 0
167 59.79 -7.45 74.30 -9.48 1.0400 232.20 1 59.79 59.79 0.00 0.00 0.00 0.00 0.00 0.00 0 0 0 0 193.5000 0 0 0 0
168 59.79 -3.87 74.30 -9.48 1.0400 232.20 1 59.79 59.79 0.00 0.00 0.00 0.00 0.00 0.00 0 0 0 0 193.5000 0 0 0 0
169 119.58 -5.45 148.61 -18.96 1.0400 464.40 1 119.58 119.58 0.00 0.00 0.00 0.00 0.00 0.00 0 0 0 0 387.0000 0 0 0 0
197 264.78 20.18 136.82 -35.82 1.0400 352.32 1 293.60 88.08 0.00 0.00 0.00 0.00 0.00 0.00 0 0 0 0 293.6000 0 0 0 0
198 207.30 22.29 96.60 -25.29 1.0400 248.76 1 207.30 62.19 0.00 0.00 0.00 0.00 0.00 0.00 0 0 0 0 207.3000 0 0 0 0
222 1.61 -0.25 2.00 -0.25 1.0400 6.24 1 1.61 1.61 0.00 0.00 0.00 0.00 0.00 0.00 0 0 0 0 5.2000 0 0 0 0
223 5.58 -0.88 6.91 -0.88 1.0400 21.60 1 5.58 5.58 0.00 0.00 0.00 0.00 0.00 0.00 0 0 0 0 18.0000 0 0 0 0
224 157.96 -4.70 196.30 -25.05 1.0400 613.44 1 157.96 157.96 0.00 0.00 0.00 0.00 0.00 0.00 0 0 0 0 511.2000 0 0 0 0
225 159.07 -7.17 197.68 -25.23 1.0400 617.76 1 159.07 159.07 0.00 0.00 0.00 0.00 0.00 0.00 0 0 0 0 514.8000 0 0 0 0
231 2.90 -0.35 1.35 -0.35 1.0400 3.48 1 2.90 0.87 0.00 0.00 0.00 0.00 0.00 0.00 0 0 0 0 2.9000 0 0 0 0
248 0.00 0.00 67.80 -14.79 1.0400 159.84 0 133.20 39.96 0.00 0.00 0.00 0.00 0.00 0.00 0 0 0 0 0.0000 0 0 0 0
249 0.00 0.00 67.80 -14.79 1.0400 159.84 0 133.20 39.96 0.00 0.00 0.00 0.00 0.00 0.00 0 0 0 0 0.0000 0 0 0 0
250 0.00 0.00 271.20 -59.14 1.0400 639.36 0 532.80 159.84 0.00 0.00 0.00 0.00 0.00 0.00 0 0 0 0 0.0000 0 0 0 0
254 0.00 0.00 1.91 -0.50 1.0400 4.92 0 4.10 1.23 0.00 0.00 0.00 0.00 0.00 0.00 0 0 0 0 0.0000 0 0 0 0
255 0.00 0.00 1.54 -0.40 1.0400 3.96 0 3.30 0.99 0.00 0.00 0.00 0.00 0.00 0.00 0 0 0 0 0.0000 0 0 0 0
256 0.00 0.00 1.35 -0.35 1.0400 3.48 0 2.90 0.87 0.00 0.00 0.00 0.00 0.00 0.00 0 0 0 0 0.0000 0 0 0 0
257 0.00 0.00 2.52 -0.66 1.0400 6.48 0 5.40 1.62 0.00 0.00 0.00 0.00 0.00 0.00 0 0 0 0 0.0000 0 0 0 0
258 1.10 -0.13 0.51 -0.13 1.0400 1.32 1 1.10 0.33 0.00 0.00 0.00 0.00 0.00 0.00 0 0 0 0 1.1000 0 0 0 0
264 0.00 0.00 19.95 -4.35 1.0400 47.04 0 39.20 11.76 0.00 0.00 0.00 0.00 0.00 0.00 0 0 0 0 0.0000 0 0 0 0
265 0.00 0.00 5.40 -1.18 1.0400 12.72 0 10.60 3.18 0.00 0.00 0.00 0.00 0.00 0.00 0 0 0 0 0.0000 0 0 0 0
275 0.00 0.00 51.51 -11.23 1.0400 121.44 0 101.20 30.36 0.00 0.00 0.00 0.00 0.00 0.00 0 0 0 0 0.0000 0 0 0 0
301 2.90 1.35 1.35 -0.35 1.0400 3.48 1 2.90 0.87 0.00 0.00 0.00 0.00 0.00 0.00 0 0 0 0 2.9000 0 0 0 0
302 2.90 1.35 1.35 -0.35 1.0400 3.48 1 2.90 0.87 0.00 0.00 0.00 0.00 0.00 0.00 0 0 0 0 2.9000 0 0 0 0
305 0.34 -0.05 0.38 -0.05 1.0400 1.20 1 0.34 0.34 0.00 0.00 0.00 0.00 0.00 0.00 0 0 0 0 1.0000 0 0 0 0
306 0.76 -0.12 0.92 -0.12 1.0400 2.88 1 0.76 0.76 0.00 0.00 0.00 0.00 0.00 0.00 0 0 0 0 2.4000 0 0 0 0
319 13.11 14.68 16.24 -2.07 1.0400 50.76 1 13.11 13.11 0.00 0.00 0.00 0.00 0.00 0.00 0 0 0 0 42.3000 0 0 0 0
350 4.65 5.21 5.76 -0.74 1.0400 18.00 1 4.65 4.65 0.00 0.00 0.00 0.00 0.00 0.00 0 0 0 0 15.0000 0 0 0 0
351 1.92 2.38 2.38 -0.30 1.0400 7.44 1 1.92 1.92 0.00 0.00 0.00 0.00 0.00 0.00 0 0 0 0 6.2000 0 0 0 0
352 4.46 5.15 5.53 -0.71 1.0400 17.28 1 4.46 4.46 0.00 0.00 0.00 0.00 0.00 0.00 0 0 0 0 14.4000 0 0 0 0
353 22.87 4.65 28.42 -3.63 1.0400 88.80 1 22.87 22.87 0.00 0.00 0.00 0.00 0.00 0.00 0 0 0 0 74.0000 0 0 0 0
361 0.00 0.00 0.81 -0.18 1.0400 1.92 0 1.60 0.48 0.00 0.00 0.00 0.00 0.00 0.00 0 0 0 0 0.0000 0 0 0 0
362 0.00 0.00 5.60 -1.22 1.0400 13.20 0 11.00 3.30 0.00 0.00 0.00 0.00 0.00 0.00 0 0 0 0 0.0000 0 0 0 0
363 0.00 0.00 1.63 -0.36 1.0400 3.84 0 3.20 0.96 0.00 0.00 0.00 0.00 0.00 0.00 0 0 0 0 0.0000 0 0 0 0
388 0.00 0.00 5.09 -1.11 1.0400 12.00 0 10.00 3.00 0.00 0.00 0.00 0.00 0.00 0.00 0 0 0 0 0.0000 0 0 0 0
389 52.00 -1.47 88.23 -19.24 1.0400 208.00 1 173.33 52.00 0.00 0.00 0.00 0.00 0.00 0.00 0 0 0 0 52.0000 0 0 0 0
390 52.00 -1.75 88.23 -19.24 1.0400 208.00 1 173.33 52.00 0.00 0.00 0.00 0.00 0.00 0.00 0 0 0 0 52.0000 0 0 0 0
391 52.00 -2.06 88.23 -19.24 1.0400 208.00 1 173.33 52.00 0.00 0.00 0.00 0.00 0.00 0.00 0 0 0 0 0.0000 0 0 0 0
392 0.00 0.00 59.25 -12.92 1.0400 139.68 0 116.40 34.92 0.00 0.00 0.00 0.00 0.00 0.00 0 0 0 0 0.0000 0 0 0 0
393 0.00 0.00 59.25 -12.92 1.0400 139.68 0 116.40 34.92 0.00 0.00 0.00 0.00 0.00 0.00 0 0 0 0 0.0000 0 0 0 0
394 0.00 0.00 59.25 -12.92 1.0400 139.68 0 116.40 34.92 0.00 0.00 0.00 0.00 0.00 0.00 0 0 0 0 0.0000 0 0 0 0
395 34.92 -1.15 59.25 -12.92 1.0400 139.68 1 116.40 34.92 0.00 0.00 0.00 0.00 0.00 0.00 0 0 0 0 0.0000 0 0 0 0
396 0.00 0.00 59.25 -12.92 1.0400 139.68 0 116.40 34.92 0.00 0.00 0.00 0.00 0.00 0.00 0 0 0 0 0.0000 0 0 0 0
409 0.00 0.00 50.90 -11.10 1.0400 120.00 0 100.00 30.00 0.00 0.00 0.00 0.00 0.00 0.00 0 0 0 0 0.0000 0 0 0 0
410 41.08 -7.54 69.71 -15.20 1.0400 164.34 1 136.95 41.08 0.00 0.00 0.00 0.00 0.00 0.00 0 0 0 0 41.0800 0 0 0 0
411 41.08 -13.68 69.71 -15.20 1.0400 164.34 1 136.95 41.08 0.00 0.00 0.00 0.00 0.00 0.00 0 0 0 0 41.0800 0 0 0 0
412 41.08 -11.94 69.71 -15.20 1.0400 164.34 1 136.95 41.08 0.00 0.00 0.00 0.00 0.00 0.00 0 0 0 0 41.0800 0 0 0 0
413 41.08 -8.16 69.71 -15.20 1.0400 164.34 1 136.95 41.08 0.00 0.00 0.00 0.00 0.00 0.00 0 0 0 0 41.0800 0 0 0 0
414 0.00 0.00 56.55 -12.33 1.0400 133.32 0 111.10 33.33 0.00 0.00 0.00 0.00 0.00 0.00 0 0 0 0 0.0000 0 0 0 0
430 0.34 0.19 0.38 -0.05 1.0400 1.20 1 0.34 0.34 0.00 0.00 0.00 0.00 0.00 0.00 0 0 0 0 1.0000 0 0 0 0
431 0.99 0.34 1.27 -0.16 1.0400 3.96 1 0.99 0.99 0.00 0.00 0.00 0.00 0.00 0.00 0 0 0 0 3.3000 0 0 0 0
432 0.41 0.40 0.46 -0.06 1.0400 1.44 1 0.41 0.41 0.00 0.00 0.00 0.00 0.00 0.00 0 0 0 0 1.2000 0 0 0 0
433 2.08 0.12 2.57 -0.33 1.0400 8.04 1 2.08 2.08 0.00 0.00 0.00 0.00 0.00 0.00 0 0 0 0 6.7000 0 0 0 0
434 1.33 0.55 1.65 -0.21 1.0400 5.16 1 1.33 1.33 0.00 0.00 0.00 0.00 0.00 0.00 0 0 0 0 4.3000 0 0 0 0
435 0.00 0.00 75.65 -9.65 1.0400 236.40 0 28.33 0.00 0.00 0.00 0.00 0.00 0.00 0.00 0 0 0 0 0.0000 0 0 0 0
436 0.00 0.00 75.65 -9.65 1.0400 236.40 0 28.33 0.00 0.00 0.00 0.00 0.00 0.00 0.00 0 0 0 0 0.0000 0 0 0 0
437 60.87 0.55 75.65 -9.65 1.0400 236.40 1 60.87 60.87 0.00 0.00 0.00 0.00 0.00 0.00 0 0 0 0 197.0000 0 0 0 0
438 60.87 -0.43 75.65 -9.65 1.0400 236.40 1 60.87 60.87 0.00 0.00 0.00 0.00 0.00 0.00 0 0 0 0 197.0000 0 0 0 0
439 60.87 0.63 75.65 -9.65 1.0400 236.40 1 60.87 60.87 0.00 0.00 0.00 0.00 0.00 0.00 0 0 0 0 197.0000 0 0 0 0
442 0.00 0.00 54.97 -11.99 1.0400 129.60 0 108.00 32.40 0.00 0.00 0.00 0.00 0.00 0.00 0 0 0 0 0.0000 0 0 0 0
443 0.00 0.00 89.07 -19.43 1.0400 210.00 0 175.00 52.50 0.00 0.00 0.00 0.00 0.00 0.00 0 0 0 0 0.0000 0 0 0 0
444 0.00 0.00 1.68 -0.37 1.0400 3.96 0 3.30 0.99 0.00 0.00 0.00 0.00 0.00 0.00 0 0 0 0 0.0000 0 0 0 0
455 66.85 26.35 113.42 -24.73 1.0400 267.40 1 222.83 66.85 0.00 0.00 0.00 0.00 0.00 0.00 0 0 0 0 66.8500 0 0 0 0
456 133.70 26.42 226.84 -49.47 1.0400 534.80 1 445.67 133.70 0.00 0.00 0.00 0.00 0.00 0.00 0 0 0 0 133.7000 0 0 0 0
458 109.60 0.00 0.00 0.00 1.0400 131.52 1 109.60 32.88 0.00 0.00 0.00 0.00 0.00 0.00 0 0 0 0 109.6000 0 0 0 0
463 0.00 0.00 3.36 -0.88 1.0400 8.64 0 7.20 2.16 0.00 0.00 0.00 0.00 0.00 0.00 0 0 0 0 0.0000 0 0 0 0
480 17.30 5.39 21.50 -2.74 1.0400 67.20 1 17.30 17.30 0.00 0.00 0.00 0.00 0.00 0.00 0 0 0 0 56.0000 0 0 0 0
481 13.95 6.62 17.28 -2.21 1.0400 54.00 1 13.95 13.95 0.00 0.00 0.00 0.00 0.00 0.00 0 0 0 0 45.0000 0 0 0 0
482 13.95 11.31 17.28 -2.21 1.0400 54.00 1 13.95 13.95 0.00 0.00 0.00 0.00 0.00 0.00 0 0 0 0 45.0000 0 0 0 0
483 7.44 3.51 9.22 -1.18 1.0400 28.80 1 7.44 7.44 0.00 0.00 0.00 0.00 0.00 0.00 0 0 0 0 24.0000 0 0 0 0
484 8.68 6.64 10.75 -1.37 1.0400 33.60 1 8.68 8.68 0.00 0.00 0.00 0.00 0.00 0.00 0 0 0 0 28.0000 0 0 0 0
494 0.00 0.00 2.70 -0.71 1.0400 6.96 0 5.80 1.74 0.00 0.00 0.00 0.00 0.00 0.00 0 0 0 0 0.0000 0 0 0 0
497 18.54 19.85 23.04 -2.94 1.0400 72.00 1 18.54 18.54 0.00 0.00 0.00 0.00 0.00 0.00 0 0 0 0 60.0000 0 0 0 0
498 5.58 6.91 6.91 -0.88 1.0400 21.60 1 5.58 5.58 0.00 0.00 0.00 0.00 0.00 0.00 0 0 0 0 18.0000 0 0 0 0
];

%% generator cost data
mpc.gencost = [
2 0 0 4 0.0000 0.002 19.000 1424.48
2 0 0 4 0.0000 0.000 5.867 1266.47
2 0 0 4 0.0000 0.000 8.412 1319.13
2 0 0 4 0.0000 0.000 9.275 1076.21
2 0 0 4 0.0000 0.002 19.000 236.03
2 0 0 4 0.0000 0.002 19.000 236.07
2 0 0 4 0.0000 0.002 23.152 604.80
2 0 0 4 0.0000 0.000 0.000 0.00
2 0 0 4 0.0000 0.000 0.000 0.00
2 0 0 4 0.0000 0.000 0.000 0.00
2 0 0 4 0.0000 0.000 0.000 0.00
2 0 0 4 0.0000 0.000 0.000 0.00
2 0 0 4 0.0000 0.000 0.000 0.00
2 0 0 4 0.0000 0.000 0.000 0.00
2 0 0 4 0.0000 0.000 0.000 0.00
2 0 0 4 0.0000 0.000 6.870 1363.88
2 0 0 4 0.0000 0.000 8.143 1060.19
2 0 0 4 0.0000 0.000 0.000 0.00
2 0 0 4 0.0000 0.000 0.000 0.00
2 0 0 4 0.0000 0.000 0.000 0.00
2 0 0 4 0.0000 0.002 19.000 1081.02
2 0 0 4 0.0000 0.002 19.000 879.08
2 0 0 4 0.0000 0.000 0.000 0.00
2 0 0 4 0.0000 0.000 0.000 0.00
2 0 0 4 0.0000 0.000 0.000 0.00
2 0 0 4 0.0000 0.000 0.000 0.00
2 0 0 4 0.0000 0.002 19.000 236.08
2 0 0 4 0.0000 0.002 24.033 799.80
2 0 0 4 0.0000 0.002 24.033 799.80
2 0 0 4 0.0000 0.002 26.742 2763.98
2 0 0 4 0.0000 0.002 19.000 236.11
2 0 0 4 0.0000 0.002 19.000 236.09
2 0 0 4 0.0000 0.002 19.000 236.08
2 0 0 4 0.0000 0.002 19.000 236.14
2 0 0 4 0.0000 0.002 19.000 236.03
2 0 0 4 0.0000 0.002 23.396 658.80
2 0 0 4 0.0000 0.002 23.202 615.90
2 0 0 4 0.0000 0.002 23.816 751.80
2 0 0 4 0.0000 0.002 19.000 236.08
2 0 0 4 0.0000 0.002 19.000 236.08
2 0 0 4 0.0000 0.000 0.000 0.00
2 0 0 4 0.0000 0.000 0.000 0.00
2 0 0 4 0.0000 0.000 0.000 0.00
2 0 0 4 0.0000 0.000 0.000 0.00
2 0 0 4 0.0000 0.000 0.000 0.00
2 0 0 4 0.0000 0.000 0.000 0.00
2 0 0 4 0.0000 0.000 0.000 0.00
2 0 0 4 0.0000 0.002 23.141 602.40
2 0 0 4 0.0000 0.002 23.205 616.50
2 0 0 4 0.0000 0.002 23.152 604.80
2 0 0 4 0.0000 0.002 23.198 615.00
2 0 0 4 0.0000 0.002 24.305 859.99
2 0 0 4 0.0000 0.002 24.305 859.99
2 0 0 4 0.0000 0.002 24.305 859.99
2 0 0 4 0.0000 0.002 23.919 774.60
2 0 0 4 0.0000 0.002 23.919 774.60
2 0 0 4 0.0000 0.002 23.919 774.60
2 0 0 4 0.0000 0.002 23.919 774.60
2 0 0 4 0.0000 0.002 23.919 774.60
2 0 0 4 0.0000 0.002 23.808 750.00
2 0 0 4 0.0000 0.002 24.059 805.42
2 0 0 4 0.0000 0.002 24.059 805.42
2 0 0 4 0.0000 0.002 24.059 805.42
2 0 0 4 0.0000 0.002 24.059 805.42
2 0 0 4 0.0000 0.002 23.883 766.65
2 0 0 4 0.0000 0.000 0.000 0.00
2 0 0 4 0.0000 0.000 0.000 0.00
2 0 0 4 0.0000 0.000 0.000 0.00
2 0 0 4 0.0000 0.000 0.000 0.00
2 0 0 4 0.0000 0.000 0.000 0.00
2 0 0 4 0.0000 0.000 0.000 0.00
2 0 0 4 0.0000 0.000 0.000 0.00
2 0 0 4 0.0000 0.000 0.000 0.00
2 0 0 4 0.0000 0.000 0.000 0.00
2 0 0 4 0.0000 0.000 0.000 0.00
2 0 0 4 0.0000 0.002 23.862 762.00
2 0 0 4 0.0000 0.002 24.316 862.50
2 0 0 4 0.0000 0.002 23.152 604.95
2 0 0 4 0.0000 0.002 24.641 934.24
2 0 0 4 0.0000 0.002 26.152 1344.19
2 0 0 4 0.0000 0.000 0.000 0.00
2 0 0 4 0.0000 0.002 19.000 236.19
2 0 0 4 0.0000 0.000 0.000 0.00
2 0 0 4 0.0000 0.000 0.000 0.00
2 0 0 4 0.0000 0.000 0.000 0.00
2 0 0 4 0.0000 0.000 0.000 0.00
2 0 0 4 0.0000 0.000 0.000 0.00
2 0 0 4 0.0000 0.002 19.000 236.15
2 0 0 4 0.0000 0.000 0.000 0.00
2 0 0 4 0.0000 0.000 0.000 0.00
];

%% branch data
mpc.branch = [
2 1 0.000531 0.003140 0.00000 76.50 0.00 0.00 0.00000 0.000 1 0.00 0.00 -30.20 -8.05 30.20 8.08 0 0 0 0
44 1 0.005479 0.050257 0.01781 320.29 0.00 0.00 0.00000 0.000 1 0.00 0.00 58.58 2.78 -58.40 -3.01 0 0 0 0
421 1 0.005369 0.051555 0.01664 320.29 0.00 0.00 0.00000 0.000 1 0.00 0.00 -28.15 3.73 28.19 -5.07 0 0 0 0
4 3 0.000692 0.003518 0.00000 225.06 0.00 0.00 0.00000 0.000 1 0.00 0.00 -93.62 -24.97 93.68 25.28 0 0 0 0
62 3 0.002718 0.026098 0.00842 320.29 0.00 0.00 0.00000 0.000 1 0.00 0.00 53.28 5.27 -53.20 -5.43 0 0 0 0
3 479 0.007258 0.069699 0.02250 320.29 0.00 0.00 0.00000 0.000 1 0.00 0.00 -40.48 -19.85 40.62 18.80 0 0 0 0
6 5 0.000556 0.003563 0.00000 4.49 0.00 0.00 0.00000 0.000 1 0.00 0.00 -2.18 -0.58 2.18 0.58 0 0 0 0
316 5 0.002445 0.023480 0.00758 320.29 0.00 0.00 0.00000 0.000 1 0.00 0.00 -43.67 22.24 43.72 -22.53 0 0 0 0
401 5 0.004886 0.046920 0.01515 320.29 0.00 0.00 0.00000 0.000 1 0.00 0.00 46.03 -22.39 -45.91 21.94 0 0 0 0
8 7 0.000355 0.012900 0.00000 567.00 0.00 0.00 1.00000 0.000 1 0.00 0.00 -151.63 -21.96 151.71 24.79 0 0 0 0
9 7 0.000120 0.013620 0.00000 800.00 0.00 0.00 1.00000 0.000 1 0.00 0.00 115.77 18.34 -115.75 -16.60 0 0 0 0
9 7 0.000120 0.013620 0.00000 800.00 0.00 0.00 1.00000 0.000 1 0.00 0.00 115.77 18.34 -115.75 -16.60 0 0 0 0
7 232 0.001119 0.014808 0.31205 1493.89 0.00 0.00 0.00000 0.000 1 0.00 0.00 9.46 0.25 -9.46 -33.71 0 0 0 0
7 262 0.000947 0.013749 0.23994 1493.89 0.00 0.00 0.00000 0.000 1 0.00 0.00 70.34 8.17 -70.30 -33.23 0 0 0 0
8 287 0.003727 0.035786 0.01155 320.29 0.00 0.00 0.00000 0.000 1 0.00 0.00 129.13 9.41 -128.54 -5.03 0 0 0 0
8 457 0.001974 0.018955 0.00612 320.29 0.00 0.00 0.00000 0.000 1 0.00 0.00 22.50 12.55 -22.49 -13.08 0 0 0 0
11 10 0.000655 0.003201 0.00000 3.96 0.00 0.00 0.00000 0.000 1 0.00 0.00 -1.72 -0.46 1.72 0.46 0 0 0 0
342 10 0.002825 0.027123 0.00876 320.29 0.00 0.00 0.00000 0.000 1 0.00 0.00 -40.79 -9.41 40.83 8.92 0 0 0 0
10 349 0.001402 0.013460 0.00434 320.29 0.00 0.00 0.00000 0.000 1 0.00 0.00 -42.55 -9.38 42.58 9.15 0 0 0 0
13 12 0.000623 0.003134 0.00000 65.50 0.00 0.00 0.00000 0.000 1 0.00 0.00 -21.03 -5.61 21.04 5.62 0 0 0 0
12 216 0.003962 0.038048 0.01228 320.29 0.00 0.00 0.00000 0.000 1 0.00 0.00 39.06 2.23 -39.00 -3.02 0 0 0 0
12 304 0.002310 0.021191 0.00751 320.29 0.00 0.00 0.00000 0.000 1 0.00 0.00 43.40 -8.93 -43.36 8.50 0 0 0 0
12 441 0.001565 0.015025 0.00485 320.29 0.00 0.00 0.00000 0.000 1 0.00 0.00 -103.49 1.07 103.65 -0.11 0 0 0 0
15 14 0.000208 0.011220 0.00000 682.00 0.00 0.00 1.00000 0.000 1 0.00 0.00 -345.27 9.51 345.50 2.87 0 0 0 0
16 14 0.000326 0.012020 0.00000 596.00 0.00 0.00 1.00000 0.000 1 0.00 0.00 444.45 -2.69 -443.85 24.65 0 0 0 0
17 14 0.000279 0.014380 0.00000 930.00 0.00 0.00 1.00000 0.000 1 0.00 0.00 444.47 3.16 -443.96 23.11 0 0 0 0
17 14 0.000354 0.014380 0.00000 930.00 0.00 0.00 1.00000 0.000 1 0.00 0.00 444.43 0.84 -443.78 25.42 0 0 0 0
18 14 0.001417 0.051150 0.00000 340.00 0.00 0.00 1.00000 0.000 1 0.00 0.00 157.60 1.13 -157.27 10.62 0 0 0 0
386 14 0.000317 0.004547 0.08136 1493.89 0.00 0.00 0.00000 0.000 1 0.00 0.00 -570.96 48.18 571.93 -43.17 0 0 0 0
386 14 0.000320 0.004550 0.08136 1493.90 0.00 0.00 0.00000 0.000 1 0.00 0.00 -570.47 48.48 571.44 -43.49 0 0 0 0
15 91 0.004799 0.046085 0.01488 320.29 0.00 0.00 0.00000 0.000 1 0.00 0.00 44.19 7.76 -44.10 -8.49 0 0 0 0
15 230 0.010894 0.104607 0.03377 320.29 0.00 0.00 0.00000 0.000 1 0.00 0.00 88.41 -19.25 -87.59 23.41 0 0 0 0
367 15 0.001918 0.018416 0.00594 320.29 0.00 0.00 0.00000 0.000 1 0.00 0.00 -127.72 6.05 128.01 -3.90 0 0 0 0
15 369 0.001854 0.017010 0.00603 320.29 0.00 0.00 0.00000 0.000 1 0.00 0.00 68.35 6.13 -68.27 -6.03 0 0 0 0
15 473 0.009225 0.084621 0.02999 320.29 0.00 0.00 0.00000 0.000 1 0.00 0.00 16.31 -0.24 -16.28 -2.79 0 0 0 0
20 19 0.000541 0.003886 0.00000 7.53 0.00 0.00 0.00000 0.000 1 0.00 0.00 -3.15 -0.84 3.15 0.84 0 0 0 0
19 112 0.004722 0.045345 0.01464 320.29 0.00 0.00 0.00000 0.000 1 0.00 0.00 -7.40 12.65 7.41 -14.11 0 0 0 0
193 19 0.002221 0.021323 0.00688 320.29 0.00 0.00 0.00000 0.000 1 0.00 0.00 -4.39 -15.33 4.39 14.64 0 0 0 0
19 272 0.002293 0.022020 0.00711 320.29 0.00 0.00 0.00000 0.000 1 0.00 0.00 -0.14 -28.12 0.16 27.51 0 0 0 0
22 21 0.000587 0.003174 0.00000 254.15 0.00 0.00 0.00000 0.000 1 0.00 0.00 -104.92 -27.98 104.98 28.33 0 0 0 0
21 112 0.005092 0.048896 0.01578 320.29 0.00 0.00 0.00000 0.000 1 0.00 0.00 33.36 -17.25 -33.29 16.23 0 0 0 0
21 196 0.002207 0.020247 0.00718 320.29 0.00 0.00 0.00000 0.000 1 0.00 0.00 -138.34 -11.08 138.75 14.04 0 0 0 0
24 23 0.000330 0.017640 0.00000 626.00 0.00 0.00 1.00000 0.000 1 0.00 0.00 -163.26 -25.63 163.34 30.13 0 0 0 0
151 23 0.000182 0.002607 0.04665 1493.89 0.00 0.00 0.00000 0.000 1 0.00 0.00 -92.87 -22.10 92.88 17.28 0 0 0 0
23 386 0.001642 0.023851 0.41623 1493.89 0.00 0.00 0.00000 0.000 1 0.00 0.00 -299.39 6.79 300.76 -31.89 0 0 0 0
23 464 0.000947 0.012532 0.26411 1493.89 0.00 0.00 0.00000 0.000 1 0.00 0.00 23.88 -27.96 -23.87 -0.56 0 0 0 0
23 471 0.000532 0.007041 0.14837 1493.89 0.00 0.00 0.00000 0.000 1 0.00 0.00 19.28 -26.24 -19.28 10.21 0 0 0 0
25 24 0.000613 0.003629 0.00000 3.56 0.00 0.00 0.00000 0.000 1 0.00 0.00 -1.30 -0.35 1.30 0.35 0 0 0 0
26 24 0.000563 0.003729 0.00000 29.46 0.00 0.00 0.00000 0.000 1 0.00 0.00 -12.36 -3.30 12.36 3.30 0 0 0 0
210 24 0.002218 0.020344 0.00721 320.29 0.00 0.00 0.00000 0.000 1 0.00 0.00 -74.06 -20.58 74.19 20.95 0 0 0 0
24 360 0.002365 0.022714 0.00733 320.29 0.00 0.00 0.00000 0.000 1 0.00 0.00 75.41 1.04 -75.28 -0.61 0 0 0 0
28 27 0.000687 0.003963 0.00000 108.61 0.00 0.00 0.00000 0.000 1 0.00 0.00 -35.91 -9.58 35.92 9.62 0 0 0 0
27 68 0.005607 0.053845 0.01738 320.29 0.00 0.00 0.00000 0.000 1 0.00 0.00 -46.23 37.77 46.40 -38.02 0 0 0 0
27 382 0.003370 0.030912 0.01095 320.29 0.00 0.00 0.00000 0.000 1 0.00 0.00 10.30 9.96 -10.30 -11.15 0 0 0 0
30 29 0.000616 0.003298 0.00000 156.98 0.00 0.00 0.00000 0.000 1 0.00 0.00 -70.54 -18.81 70.57 18.98 0 0 0 0
454 29 0.002470 0.022656 0.00803 320.29 0.00 0.00 0.00000 0.000 1 0.00 0.00 84.50 9.61 -84.33 -8.90 0 0 0 0
29 491 0.005607 0.053837 0.01738 320.29 0.00 0.00 0.00000 0.000 1 0.00 0.00 13.76 -10.08 -13.74 8.40 0 0 0 0
32 31 0.000625 0.003429 0.00000 15.70 0.00 0.00 0.00000 0.000 1 0.00 0.00 -6.78 -1.81 6.78 1.81 0 0 0 0
31 85 0.005303 0.050926 0.01644 320.29 0.00 0.00 0.00000 0.000 1 0.00 0.00 -23.90 21.88 23.95 -23.21 0 0 0 0
104 31 0.005526 0.053062 0.01713 320.29 0.00 0.00 0.00000 0.000 1 0.00 0.00 -8.76 -25.13 8.79 23.56 0 0 0 0
31 189 0.005707 0.054800 0.01769 320.29 0.00 0.00 0.00000 0.000 1 0.00 0.00 5.19 7.34 -5.19 -9.26 0 0 0 0
31 205 0.007797 0.074869 0.02417 320.29 0.00 0.00 0.00000 0.000 1 0.00 0.00 -7.06 15.59 7.09 -18.04 0 0 0 0
31 218 0.008273 0.079446 0.02565 320.29 0.00 0.00 0.00000 0.000 1 0.00 0.00 -23.03 14.86 23.09 -17.15 0 0 0 0
267 31 0.004897 0.047021 0.01518 320.29 0.00 0.00 0.00000 0.000 1 0.00 0.00 -33.14 -27.95 33.23 27.06 0 0 0 0
34 33 0.000624 0.003284 0.00000 43.35 0.00 0.00 0.00000 0.000 1 0.00 0.00 -17.36 -4.63 17.36 4.64 0 0 0 0
83 33 0.005287 0.050764 0.01639 320.29 0.00 0.00 0.00000 0.000 1 0.00 0.00 -5.35 -2.14 5.35 0.43 0 0 0 0
112 33 0.007061 0.067808 0.02189 320.29 0.00 0.00 0.00000 0.000 1 0.00 0.00 22.74 3.09 -22.71 -5.07 0 0 0 0
36 35 0.000583 0.003030 0.00000 62.87 0.00 0.00 0.00000 0.000 1 0.00 0.00 -30.10 -8.03 30.10 8.05 0 0 0 0
191 35 0.004038 0.037042 0.01313 320.29 0.00 0.00 0.00000 0.000 1 0.00 0.00 6.58 5.99 -6.57 -7.39 0 0 0 0
35 399 0.005636 0.054123 0.01747 320.29 0.00 0.00 0.00000 0.000 1 0.00 0.00 -23.53 -0.67 23.56 -0.95 0 0 0 0
38 37 0.000546 0.003823 0.00000 0.18 0.00 0.00 0.00000 0.000 1 0.00 0.00 -0.09 -0.02 0.09 0.02 0 0 0 0
76 37 0.001474 0.014156 0.00457 320.29 0.00 0.00 0.00000 0.000 1 0.00 0.00 170.62 -25.11 -170.21 28.67 0 0 0 0
37 176 0.003039 0.029180 0.00942 320.29 0.00 0.00 0.00000 0.000 1 0.00 0.00 170.12 -28.69 -169.25 35.99 0 0 0 0
40 39 0.000700 0.025310 0.00000 428.00 0.00 0.00 1.00000 0.000 1 0.00 0.00 -49.24 -10.81 49.26 11.41 0 0 0 0
39 332 0.000403 0.005786 0.10355 1493.89 0.00 0.00 0.00000 0.000 1 0.00 0.00 -22.15 -14.60 22.15 3.41 0 0 0 0
39 428 0.000521 0.006898 0.14538 1493.89 0.00 0.00 0.00000 0.000 1 0.00 0.00 -27.11 3.19 27.11 -18.86 0 0 0 0
41 40 0.000631 0.003923 0.00000 97.47 0.00 0.00 0.00000 0.000 1 0.00 0.00 -33.09 -8.82 33.10 8.87 0 0 0 0
40 131 0.002909 0.026681 0.00946 320.29 0.00 0.00 0.00000 0.000 1 0.00 0.00 16.14 1.94 -16.14 -2.89 0 0 0 0
43 42 0.000542 0.003119 0.00000 7.70 0.00 0.00 0.00000 0.000 1 0.00 0.00 -3.10 -0.83 3.10 0.83 0 0 0 0
81 42 0.002361 0.021660 0.00768 320.29 0.00 0.00 0.00000 0.000 1 0.00 0.00 56.78 -3.52 -56.71 3.33 0 0 0 0
42 191 0.006368 0.058420 0.02070 320.29 0.00 0.00 0.00000 0.000 1 0.00 0.00 53.62 -4.15 -53.45 3.44 0 0 0 0
45 44 0.000637 0.003876 0.00000 2.84 0.00 0.00 0.00000 0.000 1 0.00 0.00 -1.43 -0.38 1.43 0.38 0 0 0 0
44 200 0.002105 0.019311 0.00684 320.29 0.00 0.00 0.00000 0.000 1 0.00 0.00 -60.01 -3.16 60.08 3.10 0 0 0 0
47 46 0.000602 0.003454 0.00000 63.00 0.00 0.00 0.00000 0.000 1 0.00 0.00 -24.77 -6.61 24.78 6.63 0 0 0 0
46 156 0.006611 0.063482 0.02049 320.29 0.00 0.00 0.00000 0.000 1 0.00 0.00 21.81 3.71 -21.78 -5.55 0 0 0 0
238 46 0.003134 0.030093 0.00971 320.29 0.00 0.00 0.00000 0.000 1 0.00 0.00 46.65 9.97 -46.59 -10.34 0 0 0 0
49 48 0.013310 0.278530 0.00000 57.00 0.00 0.00 1.00000 0.000 1 0.00 0.00 1.30 -0.16 -1.30 0.16 0 0 0 0
50 48 0.007150 0.163560 0.00000 70.00 0.00 0.00 1.00000 0.000 1 0.00 0.00 2.60 -0.32 -2.60 0.33 0 0 0 0
51 48 0.000658 0.003672 0.00000 0.56 0.00 0.00 0.00000 0.000 1 0.00 0.00 -0.25 -0.07 0.25 0.07 0 0 0 0
52 48 0.000620 0.003342 0.00000 37.95 0.00 0.00 0.00000 0.000 1 0.00 0.00 -16.24 -4.33 16.24 4.34 0 0 0 0
358 48 0.004500 0.041283 0.01463 320.29 0.00 0.00 0.00000 0.000 1 0.00 0.00 22.08 9.23 -22.06 -10.64 0 0 0 0
419 48 0.004637 0.044525 0.01437 320.29 0.00 0.00 0.00000 0.000 1 0.00 0.00 -9.47 -7.27 9.47 5.74 0 0 0 0
54 53 0.000680 0.003061 0.00000 51.27 0.00 0.00 0.00000 0.000 1 0.00 0.00 -24.56 -6.55 24.56 6.57 0 0 0 0
233 53 0.002362 0.021667 0.00768 320.29 0.00 0.00 0.00000 0.000 1 0.00 0.00 74.43 2.45 -74.30 -2.12 0 0 0 0
53 276 0.001502 0.014424 0.00466 320.29 0.00 0.00 0.00000 0.000 1 0.00 0.00 49.74 -4.44 -49.70 4.30 0 0 0 0
56 55 0.000641 0.003310 0.00000 3.15 0.00 0.00 0.00000 0.000 1 0.00 0.00 -1.56 -0.42 1.56 0.42 0 0 0 0
55 66 0.004330 0.041575 0.01342 320.29 0.00 0.00 0.00000 0.000 1 0.00 0.00 -31.91 0.88 31.95 -1.96 0 0 0 0
55 500 0.004481 0.041102 0.01457 320.29 0.00 0.00 0.00000 0.000 1 0.00 0.00 30.35 -1.30 -30.31 0.05 0 0 0 0
58 57 0.000120 0.017620 0.00000 675.00 0.00 0.00 1.00000 0.000 1 0.00 0.00 -167.46 14.90 167.49 -10.34 0 0 0 0
58 57 0.000120 0.017620 0.00000 675.00 0.00 0.00 1.00000 0.000 1 0.00 0.00 -167.46 14.90 167.49 -10.34 0 0 0 0
57 123 0.001682 0.024427 0.42627 1493.89 0.00 0.00 0.00000 0.000 1 0.00 0.00 -259.38 10.90 260.44 -41.91 0 0 0 0
440 57 0.000601 0.008726 0.15227 1493.89 0.00 0.00 0.00000 0.000 1 0.00 0.00 75.64 -25.88 -75.61 9.79 0 0 0 0
59 58 0.000620 0.003848 0.00000 252.93 0.00 0.00 0.00000 0.000 1 0.00 0.00 -79.77 -21.27 79.81 21.51 0 0 0 0
58 253 0.004532 0.043520 0.01405 320.29 0.00 0.00 0.00000 0.000 1 0.00 0.00 55.85 6.26 -55.72 -6.53 0 0 0 0
322 58 0.002019 0.019385 0.00626 320.29 0.00 0.00 0.00000 0.000 1 0.00 0.00 -99.45 30.00 99.65 -28.79 0 0 0 0
322 58 0.002020 0.019390 0.00626 320.30 0.00 0.00 0.00000 0.000 1 0.00 0.00 -99.42 30.00 99.62 -28.78 0 0 0 0
61 60 0.000529 0.003518 0.00000 0.32 0.00 0.00 0.00000 0.000 1 0.00 0.00 -0.12 -0.03 0.12 0.03 0 0 0 0
60 131 0.001985 0.018208 0.00645 320.29 0.00 0.00 0.00000 0.000 1 0.00 0.00 -7.03 -2.07 7.03 1.38 0 0 0 0
466 60 0.002011 0.019314 0.00623 320.29 0.00 0.00 0.00000 0.000 1 0.00 0.00 -6.91 -2.70 6.91 2.04 0 0 0 0
63 62 0.003200 0.163530 0.00000 70.00 0.00 0.00 1.00000 0.000 1 0.00 0.00 0.00 0.00 0.00 0.00 0 0 0 0
64 62 0.000661 0.003274 0.00000 45.58 0.00 0.00 0.00000 0.000 1 0.00 0.00 -24.54 -6.54 24.54 6.56 0 0 0 0
287 62 0.005453 0.052365 0.01690 320.29 0.00 0.00 0.00000 0.000 1 0.00 0.00 10.48 5.46 -10.48 -7.17 0 0 0 0
62 457 0.007267 0.069786 0.02253 320.29 0.00 0.00 0.00000 0.000 1 0.00 0.00 -67.34 -4.66 67.66 5.32 0 0 0 0
66 65 0.000808 0.030880 0.00000 405.00 0.00 0.00 1.00000 0.000 1 0.00 0.00 -67.63 3.76 67.67 -2.46 0 0 0 0
80 65 0.000960 0.013773 0.24648 1493.89 0.00 0.00 0.00000 0.000 1 0.00 0.00 -139.68 -11.32 139.86 -13.16 0 0 0 0
65 297 0.000920 0.013192 0.23607 1493.89 0.00 0.00 0.00000 0.000 1 0.00 0.00 -207.52 15.62 207.89 -36.13 0 0 0 0
67 66 0.000661 0.003359 0.00000 6.71 0.00 0.00 0.00000 0.000 1 0.00 0.00 -3.17 -0.85 3.17 0.85 0 0 0 0
66 308 0.007180 0.068950 0.02226 320.29 0.00 0.00 0.00000 0.000 1 0.00 0.00 32.51 -2.64 -32.44 0.88 0 0 0 0
69 68 0.000669 0.003998 0.00000 27.64 0.00 0.00 0.00000 0.000 1 0.00 0.00 -9.68 -2.58 9.68 2.58 0 0 0 0
68 295 0.004469 0.040995 0.01453 320.29 0.00 0.00 0.00000 0.000 1 0.00 0.00 -30.28 19.24 30.33 -20.36 0 0 0 0
68 314 0.001805 0.017334 0.00560 320.29 0.00 0.00 0.00000 0.000 1 0.00 0.00 -25.81 16.19 25.82 -16.67 0 0 0 0
71 70 0.001030 0.044720 0.00000 133.00 0.00 0.00 1.00000 0.000 1 0.00 0.00 1.24 1.32 -1.24 -1.32 0 0 0 0
72 70 0.002920 0.144810 0.00000 60.00 0.00 0.00 1.00000 0.000 1 0.00 0.00 0.64 0.41 -0.64 -0.40 0 0 0 0
73 70 0.012696 0.273030 0.00000 49.00 0.00 0.00 1.00000 0.000 1 0.00 0.00 0.47 0.20 -0.47 -0.20 0 0 0 0
216 70 0.002596 0.023810 0.00844 320.29 0.00 0.00 0.00000 0.000 1 0.00 0.00 7.81 -5.32 -7.81 4.43 0 0 0 0
70 490 0.002127 0.019512 0.00691 320.29 0.00 0.00 0.00000 0.000 1 0.00 0.00 10.15 -2.51 -10.15 1.78 0 0 0 0
75 74 0.000584 0.003339 0.00000 8.81 0.00 0.00 0.00000 0.000 1 0.00 0.00 -3.74 -1.00 3.74 1.00 0 0 0 0
74 189 0.005632 0.054084 0.01746 320.29 0.00 0.00 0.00000 0.000 1 0.00 0.00 4.58 -8.55 -4.58 6.65 0 0 0 0
240 74 0.004434 0.040670 0.01441 320.29 0.00 0.00 0.00000 0.000 1 0.00 0.00 8.33 -9.09 -8.32 7.55 0 0 0 0
77 76 0.000695 0.003313 0.00000 12.16 0.00 0.00 0.00000 0.000 1 0.00 0.00 -4.72 -1.26 4.72 1.26 0 0 0 0
452 76 0.002012 0.019322 0.00624 330.00 0.00 0.00 0.00000 0.000 1 0.00 0.00 175.95 -18.71 -175.35 23.85 0 0 0 0
79 78 0.000622 0.003279 0.00000 0.52 0.00 0.00 0.00000 0.000 1 0.00 0.00 -0.25 -0.07 0.25 0.07 0 0 0 0
78 328 0.005432 0.049829 0.01766 320.29 0.00 0.00 0.00000 0.000 1 0.00 0.00 119.55 -11.26 -118.83 15.99 0 0 0 0
78 387 0.002354 0.022609 0.00730 320.29 0.00 0.00 0.00000 0.000 1 0.00 0.00 -119.80 11.19 120.12 -8.95 0 0 0 0
81 80 0.000650 0.034810 0.00000 529.00 0.00 0.00 1.00000 0.000 1 0.00 0.00 -89.20 4.20 89.25 -1.66 0 0 0 0
82 80 0.000430 0.031130 0.00000 628.00 0.00 0.00 1.00000 0.000 1 0.00 0.00 111.83 -15.84 -111.78 19.51 0 0 0 0
407 80 0.000818 0.010825 0.22813 1493.89 0.00 0.00 0.00000 0.000 1 0.00 0.00 -162.02 -15.72 162.21 -6.53 0 0 0 0
149 81 0.002879 0.026410 0.00936 320.29 0.00 0.00 0.00000 0.000 1 0.00 0.00 -32.39 -0.09 32.42 -0.68 0 0 0 0
84 83 0.000638 0.003655 0.00000 105.41 0.00 0.00 0.00000 0.000 1 0.00 0.00 -42.63 -11.37 42.65 11.44 0 0 0 0
83 342 0.004116 0.039520 0.01276 320.29 0.00 0.00 0.00000 0.000 1 0.00 0.00 -37.30 -9.30 37.36 8.50 0 0 0 0
86 85 0.000652 0.003901 0.00000 30.04 0.00 0.00 0.00000 0.000 1 0.00 0.00 -12.21 -3.26 12.21 3.26 0 0 0 0
272 85 0.004412 0.040470 0.01434 320.29 0.00 0.00 0.00000 0.000 1 0.00 0.00 36.23 -20.87 -36.16 19.94 0 0 0 0
88 87 0.000623 0.003569 0.00000 7.69 0.00 0.00 0.00000 0.000 1 0.00 0.00 -3.57 -0.95 3.57 0.95 0 0 0 0
87 141 0.001846 0.017727 0.00572 520.00 0.00 0.00 0.00000 0.000 1 0.00 0.00 329.82 -38.53 -327.86 56.68 0 0 0 0
87 143 0.003820 0.035043 0.01242 515.00 0.00 0.00 0.00000 0.000 1 0.00 0.00 -276.28 14.28 279.08 10.14 0 0 0 0
423 87 0.001836 0.017627 0.00569 320.29 0.00 0.00 0.00000 0.000 1 0.00 0.00 57.17 -23.24 -57.11 23.30 0 0 0 0
90 89 0.000554 0.003864 0.00000 10.48 0.00 0.00 0.00000 0.000 1 0.00 0.00 -4.16 -1.11 4.16 1.11 0 0 0 0
89 187 0.002116 0.020322 0.00656 320.29 0.00 0.00 0.00000 0.000 1 0.00 0.00 18.51 0.20 -18.50 -0.83 0 0 0 0
89 457 0.009012 0.082666 0.02929 320.29 0.00 0.00 0.00000 0.000 1 0.00 0.00 -22.67 -1.31 22.72 -1.40 0 0 0 0
92 91 0.000572 0.003617 0.00000 104.24 0.00 0.00 0.00000 0.000 1 0.00 0.00 -42.97 -11.46 42.98 11.53 0 0 0 0
91 133 0.005040 0.048401 0.01562 320.29 0.00 0.00 0.00000 0.000 1 0.00 0.00 1.12 -3.03 -1.12 1.36 0 0 0 0
94 93 0.000536 0.003281 0.00000 8.18 0.00 0.00 0.00000 0.000 1 0.00 0.00 -3.68 -0.98 3.68 0.98 0 0 0 0
269 93 0.003921 0.035965 0.01275 320.29 0.00 0.00 0.00000 0.000 1 0.00 0.00 -61.71 5.86 61.85 -5.88 0 0 0 0
336 93 0.005795 0.053155 0.01884 320.29 0.00 0.00 0.00000 0.000 1 0.00 0.00 65.77 -4.69 -65.53 4.90 0 0 0 0
96 95 0.000563 0.003253 0.00000 56.18 0.00 0.00 0.00000 0.000 1 0.00 0.00 -22.47 -5.99 22.47 6.01 0 0 0 0
95 170 0.002111 0.020268 0.00654 320.29 0.00 0.00 0.00000 0.000 1 0.00 0.00 6.75 -0.31 -6.75 -0.38 0 0 0 0
95 369 0.004094 0.039316 0.01269 320.29 0.00 0.00 0.00000 0.000 1 0.00 0.00 -29.22 -5.70 29.25 4.66 0 0 0 0
98 97 0.000569 0.003986 0.00000 66.43 0.00 0.00 0.00000 0.000 1 0.00 0.00 -24.51 -6.54 24.51 6.56 0 0 0 0
181 97 0.002992 0.028734 0.00928 320.29 0.00 0.00 0.00000 0.000 1 0.00 0.00 22.10 23.47 -22.07 -24.25 0 0 0 0
358 97 0.002676 0.024552 0.00870 320.29 0.00 0.00 0.00000 0.000 1 0.00 0.00 2.45 -18.59 -2.44 17.69 0 0 0 0
100 99 0.000644 0.003620 0.00000 22.69 0.00 0.00 0.00000 0.000 1 0.00 0.00 -7.72 -2.06 7.72 2.06 0 0 0 0
101 99 0.000699 0.003294 0.00000 1.37 0.00 0.00 0.00000 0.000 1 0.00 0.00 -0.51 -0.14 0.51 0.14 0 0 0 0
99 465 0.002689 0.025820 0.00834 320.29 0.00 0.00 0.00000 0.000 1 0.00 0.00 -5.29 -6.81 5.29 5.92 0 0 0 0
472 99 0.003318 0.031864 0.01029 320.29 0.00 0.00 0.00000 0.000 1 0.00 0.00 2.93 -5.71 -2.93 4.61 0 0 0 0
103 102 0.000614 0.003874 0.00000 64.60 0.00 0.00 0.00000 0.000 1 0.00 0.00 -26.94 -7.18 26.94 7.21 0 0 0 0
102 308 0.005650 0.054254 0.01751 320.29 0.00 0.00 0.00000 0.000 1 0.00 0.00 -21.11 0.30 21.13 -1.99 0 0 0 0
419 102 0.003638 0.034938 0.01128 320.29 0.00 0.00 0.00000 0.000 1 0.00 0.00 5.84 6.30 -5.84 -7.51 0 0 0 0
105 104 0.000673 0.003751 0.00000 144.23 0.00 0.00 0.00000 0.000 1 0.00 0.00 -55.78 -14.87 55.80 14.99 0 0 0 0
104 191 0.005177 0.047485 0.01683 320.29 0.00 0.00 0.00000 0.000 1 0.00 0.00 -47.04 10.14 47.15 -10.97 0 0 0 0
107 106 0.000575 0.003206 0.00000 24.46 0.00 0.00 0.00000 0.000 1 0.00 0.00 -11.11 -2.96 11.11 2.97 0 0 0 0
106 191 0.004468 0.042904 0.01385 320.29 0.00 0.00 0.00000 0.000 1 0.00 0.00 20.18 -9.76 -20.16 8.45 0 0 0 0
236 106 0.003115 0.029915 0.00966 320.29 0.00 0.00 0.00000 0.000 1 0.00 0.00 31.32 -7.56 -31.29 6.80 0 0 0 0
109 108 0.000658 0.003010 0.00000 62.91 0.00 0.00 0.00000 0.000 1 0.00 0.00 -27.15 -7.24 27.16 7.26 0 0 0 0
108 472 0.002033 0.019521 0.00630 320.29 0.00 0.00 0.00000 0.000 1 0.00 0.00 -51.64 -12.96 51.69 12.80 0 0 0 0
108 495 0.003611 0.034672 0.01119 320.29 0.00 0.00 0.00000 0.000 1 0.00 0.00 24.48 5.70 -24.46 -6.69 0 0 0 0
111 110 0.000527 0.003708 0.00000 87.02 0.00 0.00 0.00000 0.000 1 0.00 0.00 -35.55 -9.48 35.55 9.53 0 0 0 0
274 110 0.003126 0.030018 0.00969 320.29 0.00 0.00 0.00000 0.000 1 0.00 0.00 -5.48 -23.32 5.49 22.43 0 0 0 0
110 316 0.003439 0.033025 0.01066 320.29 0.00 0.00 0.00000 0.000 1 0.00 0.00 -41.05 22.44 41.12 -22.92 0 0 0 0
113 112 0.000644 0.003119 0.00000 72.98 0.00 0.00 0.00000 0.000 1 0.00 0.00 -31.93 -8.51 31.94 8.55 0 0 0 0
193 112 0.002867 0.027534 0.00889 320.29 0.00 0.00 0.00000 0.000 1 0.00 0.00 -15.54 10.00 15.55 -10.86 0 0 0 0
112 236 0.006329 0.060777 0.01962 320.29 0.00 0.00 0.00000 0.000 1 0.00 0.00 -9.56 -14.06 9.57 12.11 0 0 0 0
112 283 0.008619 0.082760 0.02672 320.29 0.00 0.00 0.00000 0.000 1 0.00 0.00 2.84 -6.46 -2.84 3.64 0 0 0 0
372 112 0.002007 0.019267 0.00622 320.29 0.00 0.00 0.00000 0.000 1 0.00 0.00 94.19 -1.54 -94.03 2.48 0 0 0 0
112 499 0.005577 0.051155 0.01813 320.29 0.00 0.00 0.00000 0.000 1 0.00 0.00 56.39 15.15 -56.21 -15.40 0 0 0 0
115 114 0.000506 0.003360 0.00000 6.74 0.00 0.00 0.00000 0.000 1 0.00 0.00 -3.51 -0.94 3.51 0.94 0 0 0 0
116 114 0.000505 0.003411 0.00000 5.26 0.00 0.00 0.00000 0.000 1 0.00 0.00 -2.15 -0.57 2.15 0.57 0 0 0 0
114 191 0.005557 0.053364 0.01723 320.29 0.00 0.00 0.00000 0.000 1 0.00 0.00 -13.72 1.22 13.73 -3.00 0 0 0 0
114 312 0.006609 0.063462 0.02049 320.29 0.00 0.00 0.00000 0.000 1 0.00 0.00 8.05 -2.73 -8.05 0.53 0 0 0 0
118 117 0.000634 0.003851 0.00000 12.80 0.00 0.00 0.00000 0.000 1 0.00 0.00 -6.13 -1.64 6.13 1.64 0 0 0 0
117 426 0.003172 0.029099 0.01031 320.29 0.00 0.00 0.00000 0.000 1 0.00 0.00 -15.68 -7.65 15.69 6.60 0 0 0 0
490 117 0.002999 0.027508 0.00975 320.29 0.00 0.00 0.00000 0.000 1 0.00 0.00 -9.55 -7.03 9.55 6.01 0 0 0 0
120 119 0.000556 0.003059 0.00000 46.58 0.00 0.00 0.00000 0.000 1 0.00 0.00 -17.91 -4.78 17.92 4.79 0 0 0 0
119 129 0.002350 0.021554 0.00764 320.29 0.00 0.00 0.00000 0.000 1 0.00 0.00 27.60 -24.99 -27.57 24.43 0 0 0 0
253 119 0.001494 0.014350 0.00463 320.29 0.00 0.00 0.00000 0.000 1 0.00 0.00 45.55 -20.38 -45.52 20.21 0 0 0 0
122 121 0.000555 0.003846 0.00000 70.42 0.00 0.00 0.00000 0.000 1 0.00 0.00 -37.65 -10.04 37.66 10.10 0 0 0 0
121 276 0.002548 0.024463 0.00790 320.29 0.00 0.00 0.00000 0.000 1 0.00 0.00 -22.08 -5.58 22.10 4.87 0 0 0 0
121 287 0.007088 0.068058 0.02197 320.29 0.00 0.00 0.00000 0.000 1 0.00 0.00 -15.58 -4.51 15.59 2.37 0 0 0 0
124 123 0.000200 0.014380 0.00000 488.00 0.00 0.00 1.00000 0.000 1 0.00 0.00 -25.66 -3.15 25.67 3.24 0 0 0 0
125 123 0.000280 0.040640 0.00000 346.00 0.00 0.00 1.00000 0.000 1 0.00 0.00 0.00 0.00 0.00 0.00 0 0 0 0
126 123 0.000150 0.021890 0.00000 352.00 0.00 0.00 1.00000 0.000 1 0.00 0.00 0.00 0.00 0.00 0.00 0 0 0 0
...
];

%% bus names
mpc.bus_name = [
'WINNSBORO 0';
'WINNSBORO 1';
'COLUMBIA 11 0';
'COLUMBIA 11 1';
'SMYRNA 0';
'SMYRNA 1';
'EASTOVER 2 0';
'EASTOVER 2 1';
'EASTOVER 2 2';
'CHAPPELLS 2 0';
'CHAPPELLS 2 1';
'PELZER 0';
'PELZER 1';
'SENECA 3 0';
'SENECA 3 1';
'SENECA 3 2';
'SENECA 3 3';
'SENECA 3 4';
'MONETTA 0';
'MONETTA 1';
'LEXINGTON 2 0';
'LEXINGTON 2 1';
'WELLFORD 0';
'WELLFORD 1';
'WELLFORD 2';
'WELLFORD 3';
'LAURENS 0';
'LAURENS 1';
'COLUMBIA 10 0';
'COLUMBIA 10 1';
'WINDSOR 0';
'WINDSOR 1';
'PROSPERITY 0';
'PROSPERITY 1';
'NORTH AUGUSTA 2 0';
'NORTH AUGUSTA 2 1';
'LANDO 0';
'LANDO 1';
'GAFFNEY 3 0';
'GAFFNEY 3 1';
'GAFFNEY 3 2';
'CLARKS HILL 2 0';
'CLARKS HILL 2 1';
'JENKINSVILLE 0';
'JENKINSVILLE 1';
'WOODRUFF 0';
'WOODRUFF 1';
'IVA 0';
'IVA 1';
'IVA 2';
'IVA 3';
'IVA 4';
'CAYCE 0';
'CAYCE 1';
'TROY 0';
'TROY 1';
'SIMPSONVILLE 2 0';
'SIMPSONVILLE 2 1';
'SIMPSONVILLE 2 2';
'MAYO 0';
'MAYO 1';
'BELTON 2 0';
'BELTON 2 1';
'BELTON 2 2';
'BRADLEY 0';
'BRADLEY 1';
'BRADLEY 2';
'ENOREE 0';
'ENOREE 1';
'HONEA PATH 2 0';
'HONEA PATH 2 1';
'HONEA PATH 2 2';
'HONEA PATH 2 3';
'SPRINGFIELD 0';
'SPRINGFIELD 1';
'EDGEMOOR 0';
'EDGEMOOR 1';
'NEWRY 0';
'NEWRY 1';
'CLARKS HILL 1 0';
'CLARKS HILL 1 1';
'CLARKS HILL 1 2';
'NEWBERRY 0';
'NEWBERRY 1';
'AIKEN 3 0';
'AIKEN 3 1';
'ROCK HILL 3 0';
'ROCK HILL 3 1';
'CAMERON 0';
'CAMERON 1';
'SENECA 2 0';
'SENECA 2 1';
'BLAIR 0';
'BLAIR 1';
'WALHALLA 0';
'WALHALLA 1';
'ANDERSON 4 0';
'ANDERSON 4 1';
'PACOLET 0';
'PACOLET 1';
'PACOLET 2';
'ABBEVILLE 0';
'ABBEVILLE 1';
'AIKEN 2 0';
'AIKEN 2 1';
'JOHNSTON 0';
'JOHNSTON 1';
'SPARTANBURG 6 0';
'SPARTANBURG 6 1';
'GAFFNEY 2 0';
'GAFFNEY 2 1';
'LEESVILLE 0';
'LEESVILLE 1';
'LANGLEY 0';
'LANGLEY 1';
'LANGLEY 2';
'DONALDS 0';
'DONALDS 1';
'GREENVILLE 7 0';
'GREENVILLE 7 1';
'COLUMBIA 9 0';
'COLUMBIA 9 1';
'SALEM 3 0';
'SALEM 3 1';
'SALEM 3 2';
'SALEM 3 3';
'SALEM 3 4';
'SALEM 3 5';
'GREENVILLE 6 0';
'GREENVILLE 6 1';
'COWPENS 0';
'COWPENS 1';
'WESTMINSTER 2 0';
'WESTMINSTER 2 1';
'SAINT MATTHEWS 0';
'SAINT MATTHEWS 1';
'GREENWOOD 2 0';
'GREENWOOD 2 1';
'FINGERVILLE 0';
'FINGERVILLE 1';
'ROCK HILL 2 0';
'ROCK HILL 2 1';
'YORK 2 0';
'YORK 2 1';
'YORK 2 2';
'CHAPIN 0';
'CHAPIN 1';
'CHAPIN 2';
'MODOC 0';
'MODOC 1';
'SPARTANBURG 5 0';
'SPARTANBURG 5 1';
'SPARTANBURG 5 2';
'BOILING SPRINGS 0';
'BOILING SPRINGS 1';
'GREENVILLE 5 0';
'GREENVILLE 5 1';
'PELION 0';
'PELION 1';
'GRANITEVILLE 0';
'GRANITEVILLE 1';
'IRMO 0';
'IRMO 1';
'IRMO 2';
'SALEM 2 0';
'SALEM 2 1';
'SALEM 2 2';
'SALEM 2 3';
'SALEM 2 4';
'WEST UNION 0';
'WEST UNION 1';
'CROSS HILL 0';
'CROSS HILL 1';
'CROSS HILL 2';
'FORT LAWN 0';
'FORT LAWN 1';
'FORT LAWN 2';
'FORT LAWN 3';
'NORTH 0';
'NORTH 1';
'ANDERSON 3 0';
'ANDERSON 3 1';
'BLACKSBURG 2 0';
'BLACKSBURG 2 1';
'LIBERTY 0';
'LIBERTY 1';
'ELLOREE 0';
'ELLOREE 1';
'WAGENER 0';
'WAGENER 1';
'TRENTON 0';
'TRENTON 1';
'BATESBURG 0';
'BATESBURG 1';
'COLUMBIA 8 0';
'COLUMBIA 8 1';
'COLUMBIA 8 2';
'COLUMBIA 8 3';
'COLUMBIA 8 4';
'LITTLE MOUNTAIN 0';
'LITTLE MOUNTAIN 1';
'CLINTON 0';
'CLINTON 1';
'CLINTON 2';
'WARRENVILLE 0';
'WARRENVILLE 1';
'WARRENVILLE 2';
'SIMPSONVILLE 1 0';
'SIMPSONVILLE 1 1';
'DUNCAN 0';
'DUNCAN 1';
'NORTH AUGUSTA 1 0';
'NORTH AUGUSTA 1 1';
'GREENWOOD 1 0';
'GREENWOOD 1 1';
'BELTON 1 0';
'BELTON 1 1';
'VAUCLUSE 0';
'VAUCLUSE 1';
'UNION 3 0';
'UNION 3 1';
'UNION 3 2';
'UNION 3 3';
'UNION 3 4';
'UNION 3 5';
'MOUNTAIN REST 0';
'MOUNTAIN REST 1';
'PICKENS 0';
'PICKENS 1';
'WESTMINSTER 1 0';
'WESTMINSTER 1 1';
'WEST COLUMBIA 3 0';
'WEST COLUMBIA 3 1';
'WEST COLUMBIA 3 2';
'WARD 0';
'WARD 1';
'WARD 2';
'MOORE 0';
'MOORE 1';
'WILLISTON 0';
'WILLISTON 1';
'COLUMBIA 7 0';
'COLUMBIA 7 1';
'WATERLOO 0';
'WATERLOO 1';
'BLACKSBURG 1 0';
'BLACKSBURG 1 1';
'BLACKSBURG 1 2';
'BLACKSBURG 1 3';
'BLACKSBURG 1 4';
'TAYLORS 0';
'TAYLORS 1';
'GREENVILLE 4 0';
'GREENVILLE 4 1';
'GREENVILLE 4 2';
'GREENVILLE 4 3';
'GREENVILLE 4 4';
'GREENVILLE 4 5';
'GREENVILLE 4 6';
'SALEM 1 0';
'SALEM 1 1';
'COLUMBIA 6 0';
'COLUMBIA 6 1';
'COLUMBIA 6 2';
'COLUMBIA 6 3';
'COLUMBIA 6 4';
'AIKEN 1 0';
'AIKEN 1 1';
'POMARIA 0';
'POMARIA 1';
'RIDGE SPRING 0';
'RIDGE SPRING 1';
'RIDGE SPRING 2';
'GAFFNEY 1 0';
'GAFFNEY 1 1';
'COLUMBIA 5 0';
'COLUMBIA 5 1';
'COLUMBIA 5 2';
'MARIETTA 0';
'MARIETTA 1';
'ANDERSON 2 0';
'ANDERSON 2 1';
'SALUDA 0';
'SALUDA 1';
'FAIR PLAY 0';
'FAIR PLAY 1';
'HOPKINS 0';
'HOPKINS 1';
'SUNSET 0';
'SUNSET 1';
'SALLEY 0';
'SALLEY 1';
'EDGEFIELD 0';
'EDGEFIELD 1';
'BUFFALO 0';
'BUFFALO 1';
'WARE SHOALS 0';
'WARE SHOALS 1';
'WARE SHOALS 2';
'YORK 1 0';
'YORK 1 1';
'YORK 1 2';
'YORK 1 3';
'PIEDMONT 0';
'PIEDMONT 1';
'PIEDMONT 2';
'PIEDMONT 3';
'CALHOUN FALLS 0';
'CALHOUN FALLS 1';
'ANDERSON 1 0';
'ANDERSON 1 1';
'JACKSON 0';
'JACKSON 1';
'CROSS ANCHOR 0';
'CROSS ANCHOR 1';
'HICKORY GROVE 0';
'HICKORY GROVE 1';
'GREAT FALLS 2 0';
'GREAT FALLS 2 1';
'COLUMBIA 4 0';
'COLUMBIA 4 1';
'MAULDIN 0';
'MAULDIN 1';
'GREENVILLE 3 0';
'GREENVILLE 3 1';
'COLUMBIA 3 0';
'COLUMBIA 3 1';
'PENDLETON 0';
'PENDLETON 1';
'SPARTANBURG 4 0';
'SPARTANBURG 4 1';
'CONVERSE 0';
'CONVERSE 1';
'CONVERSE 2';
'CONVERSE 3';
'BLACKSTOCK 0';
'BLACKSTOCK 1';
'FORT MILL 3 0';
'FORT MILL 3 1';
'LANDRUM 0';
'LANDRUM 1';
'SILVERSTREET 0';
'SILVERSTREET 1';
'SILVERSTREET 2';
'ORANGEBURG 0';
'ORANGEBURG 1';
'GREENVILLE 2 0';
'GREENVILLE 2 1';
'CHAPPELLS 1 0';
'CHAPPELLS 1 1';
'CHAPPELLS 1 2';
'CHAPPELLS 1 3';
'CHAPPELLS 1 4';
'RIDGEWAY 2 0';
'RIDGEWAY 2 1';
'FOUNTAIN INN 0';
'FOUNTAIN INN 1';
'STARR 0';
'STARR 1';
'SPARTANBURG 3 0';
'SPARTANBURG 3 1';
'SPARTANBURG 3 2';
'SPARTANBURG 3 3';
'SPARTANBURG 3 4';
'GASTON 2 0';
'GASTON 2 1';
'SIX MILE 0';
'SIX MILE 1';
'SENECA 1 0';
'SENECA 1 1';
'GILBERT 0';
'GILBERT 1';
'GILBERT 2';
'SWANSEA 0';
'SWANSEA 1';
'INMAN 0';
'INMAN 1';
'GREAT FALLS 1 0';
'GREAT FALLS 1 1';
'WHITMIRE 0';
'WHITMIRE 1';
'GRAY COURT 0';
'GRAY COURT 1';
'WILLIAMSTON 2 0';
'WILLIAMSTON 2 1';
'CLEMSON 0';
'CLEMSON 1';
'CLEMSON 2';
'CLEMSON 3';
'CLEMSON 4';
'CLEMSON 5';
'CLEMSON 6';
'CLEMSON 7';
'CLEMSON 8';
'CLEMSON 9';
'CLEMSON 10';
'CLEMSON 11';
'CLEMSON 12';
'BEECH ISLAND 2 0';
'BEECH ISLAND 2 1';
'CLOVER 0';
'CLOVER 1';
'NINETY SIX 0';
'NINETY SIX 1';
'MC CONNELLS 0';
'MC CONNELLS 1';
'BEECH ISLAND 1 0';
'BEECH ISLAND 1 1';
'BEECH ISLAND 1 2';
'BEECH ISLAND 1 3';
'BEECH ISLAND 1 4';
'BEECH ISLAND 1 5';
'BEECH ISLAND 1 6';
'BEECH ISLAND 1 7';
'GADSDEN 0';
'GADSDEN 1';
'TRAVELERS REST 0';
'TRAVELERS REST 1';
'DUE WEST 0';
'DUE WEST 1';
'BLYTHEWOOD 0';
'BLYTHEWOOD 1';
'ROCK HILL 1 0';
'ROCK HILL 1 1';
'HODGES 0';
'HODGES 1';
'HODGES 2';
'CHESNEE 2 0';
'CHESNEE 2 1';
'CHESNEE 2 2';
'CHESNEE 2 3';
'CHESNEE 2 4';
'CHESNEE 2 5';
'CHESNEE 2 6';
'CHESNEE 2 7';
'CHESNEE 2 8';
'CHESNEE 2 9';
'CHESNEE 2 10';
'CHESNEE 2 11';
'WILLIAMSTON 1 0';
'WILLIAMSTON 1 1';
'WILLIAMSTON 1 2';
'WILLIAMSTON 1 3';
'WILLIAMSTON 1 4';
'EASLEY 2 0';
'EASLEY 2 1';
'UNION 2 0';
'UNION 2 1';
'ARCADIA 0';
'ARCADIA 1';
'ARCADIA 2';
'CATAWBA 0';
'GASTON 1 0';
'GASTON 1 1';
'GASTON 1 2';
'GASTON 1 3';
'EASTOVER 1 0';
'EASTOVER 1 1';
'FORT MILL 2 0';
'CAMPOBELLO 0';
'EASLEY 1 0';
'UNION 1 0';
'UNION 1 1';
'JONESVILLE 0';
'JONESVILLE 1';
'CHESNEE 1 0';
'NORRIS 0';
'CLEVELAND 0';
'GREER 2 0';
'CENTRAL 0';
'SPARTANBURG 2 0';
'SPARTANBURG 2 1';
'LONG CREEK 0';
'GREENVILLE 1 0';
'PEAK 0';
'COLUMBIA 2 0';
'ROEBUCK 0';
'SHARON 0';
'RIDGEWAY 1 0';
'RIDGEWAY 1 1';
'RIDGEWAY 1 2';
'RIDGEWAY 1 3';
'RIDGEWAY 1 4';
'RIDGEWAY 1 5';
'WEST COLUMBIA 2 0';
'WEST COLUMBIA 1 0';
'TOWNVILLE 0';
'GREER 1 0';
'PLUM BRANCH 0';
'HONEA PATH 1 0';
'COLUMBIA 1 0';
'CHESTER 0';
'CARLISLE 0';
'CARLISLE 1';
'SPARTANBURG 1 0';
'FORT MILL 1 0';
'FORT MILL 1 1';
'FORT MILL 1 2';
'LEXINGTON 1 0';
'MC CORMICK 0';
];

%% Generator Unit Types
mpc.gentype = [
'ST';
'NB';
'NB';
'NB';
'ST';
'ST';
'GT';
'HY';
'HY';
'HY';
'HY';
'HY';
'HY';
'HY';
'HY';
'NB';
'NB';
'HY';
'HY';
'HY';
'ST';
'ST';
'HY';
'HY';
'HY';
'HY';
'ST';
'GT';
'GT';
'GT';
'ST';
'ST';
'ST';
'ST';
'ST';
'GT';
'GT';
'GT';
'ST';
'ST';
'HY';
'HY';
'HY';
'HY';
'HY';
'HY';
'HY';
...